<?xml version="1.0" encoding="UTF-8"?>

<!-- generated on 2025-03-19 21:58:10.645253 by osmWebWizard.py v1_22_0+0002-63e50f52594
<configuration>
    <net-file value="C:\Users\sai\OneDrive\Documents\TLO\2025-03-19-21-57-58\osm.net.xml.gz"/>
    <output-trip-file value="C:\Users\sai\OneDrive\Documents\TLO\2025-03-19-21-57-58\osm.passenger.trips.xml"/>
    <route-file value="C:\Users\sai\OneDrive\Documents\TLO\2025-03-19-21-57-58\osm.passenger.rou.xml"/>
    <prefix value="veh"/>
    <trip-attributes value="departLane=&quot;best&quot;"/>
    <fringe-start-attributes value="departSpeed=&quot;max&quot;"/>
    <vehicle-class value="passenger"/>
    <lanes value="True"/>
    <fringe-factor value="5"/>
    <allow-fringe.min-length value="1000.0"/>
    <via-edge-types value="highway.motorway,highway.motorway_link,highway.trunk_link,highway.primary_link,highway.secondary_link,highway.tertiary_link"/>
    <min-distance value="300.0"/>
    <min-distance.fringe value="10.0"/>
    <remove-loops value="True"/>
    <validate value="True"/>
    <insertion-density value="12.0"/>
</configuration>
-->

<!-- generated on 2025-03-19 21:58:10 by Eclipse SUMO duarouter Version 1.22.0
<duarouterConfiguration xmlns:xsi="http://www.w3.org/2001/XMLSchema-instance" xsi:noNamespaceSchemaLocation="http://sumo.dlr.de/xsd/duarouterConfiguration.xsd">

    <input>
        <net-file value="C:\Users\sai\OneDrive\Documents\TLO\2025-03-19-21-57-58\osm.net.xml.gz"/>
        <route-files value="C:\Users\sai\OneDrive\Documents\TLO\2025-03-19-21-57-58\osm.passenger.trips.xml"/>
    </input>

    <output>
        <output-file value="C:\Users\sai\OneDrive\Documents\TLO\2025-03-19-21-57-58\osm.passenger.trips.xml.tmp"/>
        <alternatives-output value="NUL"/>
        <write-trips value="true"/>
    </output>

    <processing>
        <remove-loops value="true"/>
    </processing>

    <time>
        <begin value="0.0"/>
        <end value="3600.0"/>
    </time>

    <report>
        <no-warnings value="true"/>
        <ignore-errors value="true"/>
        <no-step-log value="true"/>
    </report>

</duarouterConfiguration>
-->

<routes xmlns:xsi="http://www.w3.org/2001/XMLSchema-instance" xsi:noNamespaceSchemaLocation="http://sumo.dlr.de/xsd/routes_file.xsd">
    <vType id="veh_passenger" vClass="passenger"/>
    <trip id="veh0" type="veh_passenger" depart="0.00" departLane="best" from="-189119753#8" to="-1082237036#4"/>
    <trip id="veh1" type="veh_passenger" depart="4.04" departLane="best" from="-189119987#6" to="-189119998#2"/>
    <trip id="veh2" type="veh_passenger" depart="8.08" departLane="best" from="189119957#1" to="189119925#0"/>
    <trip id="veh3" type="veh_passenger" depart="12.12" departLane="best" from="189120063#6" to="-189119754"/>
    <trip id="veh4" type="veh_passenger" depart="16.16" departLane="best" departSpeed="max" from="-189120071#3" to="-1082237038"/>
    <trip id="veh5" type="veh_passenger" depart="20.20" departLane="best" from="-189119913#1" to="1242129201"/>
    <trip id="veh6" type="veh_passenger" depart="24.24" departLane="best" from="-1082242460" to="-189119967#1"/>
    <trip id="veh7" type="veh_passenger" depart="28.28" departLane="best" from="189119768#0" to="189108285"/>
    <trip id="veh8" type="veh_passenger" depart="32.32" departLane="best" from="-189119915#1" to="189119772"/>
    <trip id="veh9" type="veh_passenger" depart="36.36" departLane="best" from="-189120022#5" to="-1082230864"/>
    <trip id="veh10" type="veh_passenger" depart="40.40" departLane="best" from="-189120022#0" to="189119957#2"/>
    <trip id="veh11" type="veh_passenger" depart="44.44" departLane="best" from="-189120035#2" to="-189119911#0"/>
    <trip id="veh12" type="veh_passenger" depart="48.48" departLane="best" departSpeed="max" from="419815217#0" to="-189120061#7"/>
    <trip id="veh13" type="veh_passenger" depart="52.52" departLane="best" from="-189101694#5" to="-189119766"/>
    <trip id="veh14" type="veh_passenger" depart="56.56" departLane="best" from="189120050#3" to="189119787"/>
    <trip id="veh15" type="veh_passenger" depart="60.60" departLane="best" from="-189120022#1" to="189119993#0"/>
    <trip id="veh16" type="veh_passenger" depart="64.64" departLane="best" from="1082230860" to="632784890#15"/>
    <trip id="veh17" type="veh_passenger" depart="68.68" departLane="best" from="-189120054#4" to="189108345#4"/>
    <trip id="veh18" type="veh_passenger" depart="72.72" departLane="best" from="189120045#0" to="189119836"/>
    <trip id="veh19" type="veh_passenger" depart="76.76" departLane="best" from="189120048#9" to="189119769#0"/>
    <trip id="veh20" type="veh_passenger" depart="80.80" departLane="best" from="189119894#3" to="-1185205903#5"/>
    <trip id="veh21" type="veh_passenger" depart="84.84" departLane="best" from="-189119928#0" to="-189120048#4"/>
    <trip id="veh23" type="veh_passenger" depart="92.92" departLane="best" from="-189119753#4" to="-413290041#0"/>
    <trip id="veh24" type="veh_passenger" depart="96.96" departLane="best" from="-189120053#1" to="-189119987#5"/>
    <trip id="veh25" type="veh_passenger" depart="101.00" departLane="best" departSpeed="max" from="-189119979#3" to="419669103#1"/>
    <trip id="veh26" type="veh_passenger" depart="105.04" departLane="best" from="189119763#0" to="189119822#2"/>
    <trip id="veh27" type="veh_passenger" depart="109.08" departLane="best" departSpeed="max" from="-189119836" to="189119991"/>
    <trip id="veh28" type="veh_passenger" depart="113.12" departLane="best" from="-189119834" to="-419660061#2"/>
    <trip id="veh29" type="veh_passenger" depart="117.16" departLane="best" from="793727141" to="189119875#2"/>
    <trip id="veh30" type="veh_passenger" depart="121.20" departLane="best" from="-1082237036#6" to="-189119932#1"/>
    <trip id="veh31" type="veh_passenger" depart="125.25" departLane="best" from="189120048#7" to="189120025#0"/>
    <trip id="veh32" type="veh_passenger" depart="129.29" departLane="best" from="-189120017#0" to="-189120032#1"/>
    <trip id="veh33" type="veh_passenger" depart="133.33" departLane="best" from="-189119894#1" to="419815213"/>
    <trip id="veh34" type="veh_passenger" depart="137.37" departLane="best" from="189120058#2" to="-189120055#1"/>
    <trip id="veh35" type="veh_passenger" depart="141.41" departLane="best" from="189119773#0" to="-419815216#8"/>
    <trip id="veh36" type="veh_passenger" depart="145.45" departLane="best" departSpeed="max" from="-189119979#3" to="189120015#2"/>
    <trip id="veh37" type="veh_passenger" depart="149.49" departLane="best" departSpeed="max" from="-1082237038" to="-189120025#3"/>
    <trip id="veh38" type="veh_passenger" depart="153.53" departLane="best" departSpeed="max" from="1185205341" to="412001111#2"/>
    <trip id="veh39" type="veh_passenger" depart="157.57" departLane="best" from="968343038#2" to="1306141401"/>
    <trip id="veh40" type="veh_passenger" depart="161.61" departLane="best" from="-189101694#2" to="-1187803210"/>
    <trip id="veh41" type="veh_passenger" depart="165.65" departLane="best" from="189119753#2" to="189119851"/>
    <trip id="veh42" type="veh_passenger" depart="169.69" departLane="best" from="189120014#0" to="-968343038#3"/>
    <trip id="veh43" type="veh_passenger" depart="173.73" departLane="best" from="-1242125960" to="-419660063#0"/>
    <trip id="veh44" type="veh_passenger" depart="177.77" departLane="best" from="968343038#1" to="189101694#0"/>
    <trip id="veh46" type="veh_passenger" depart="185.85" departLane="best" from="1082237036#10" to="189119985#2"/>
    <trip id="veh47" type="veh_passenger" depart="189.89" departLane="best" departSpeed="max" from="189119860" to="189101694#9"/>
    <trip id="veh48" type="veh_passenger" depart="193.93" departLane="best" departSpeed="max" from="-189119979#3" to="189119875#2"/>
    <trip id="veh49" type="veh_passenger" depart="197.97" departLane="best" from="-189119753#4" to="1082083695#4"/>
    <trip id="veh50" type="veh_passenger" depart="202.01" departLane="best" departSpeed="max" from="-413309139" to="419815219"/>
    <trip id="veh51" type="veh_passenger" depart="206.05" departLane="best" from="-189120058#17" to="-189120025#3"/>
    <trip id="veh52" type="veh_passenger" depart="210.09" departLane="best" from="-420218453#0" to="-189119950"/>
    <trip id="veh53" type="veh_passenger" depart="214.13" departLane="best" from="1309211630" to="-189119894#4"/>
    <trip id="veh54" type="veh_passenger" depart="218.17" departLane="best" from="189119988#1" to="1082083695#4"/>
    <trip id="veh55" type="veh_passenger" depart="222.21" departLane="best" from="189120006#0" to="189101694#10"/>
    <trip id="veh56" type="veh_passenger" depart="226.25" departLane="best" from="-1081735660#1" to="189120058#17"/>
    <trip id="veh57" type="veh_passenger" depart="230.29" departLane="best" from="-1211207436" to="419660067#1"/>
    <trip id="veh58" type="veh_passenger" depart="234.33" departLane="best" from="189120058#5" to="189120054#7"/>
    <trip id="veh59" type="veh_passenger" depart="238.37" departLane="best" from="-189120014#1" to="-1242125958#1"/>
    <trip id="veh60" type="veh_passenger" depart="242.41" departLane="best" from="189120058#4" to="419815216#3"/>
    <trip id="veh61" type="veh_passenger" depart="246.45" departLane="best" departSpeed="max" from="-142938792#1" to="1082237036#7"/>
    <trip id="veh62" type="veh_passenger" depart="250.49" departLane="best" departSpeed="max" from="-1306141401" to="189120015#1"/>
    <trip id="veh63" type="veh_passenger" depart="254.53" departLane="best" from="189119993#2" to="-189119860"/>
    <trip id="veh64" type="veh_passenger" depart="258.57" departLane="best" departSpeed="max" from="-419669103#1" to="-189108345#3"/>
    <trip id="veh65" type="veh_passenger" depart="262.61" departLane="best" departSpeed="max" from="-189119979#3" to="189120071#3"/>
    <trip id="veh66" type="veh_passenger" depart="266.65" departLane="best" departSpeed="max" from="-189120071#3" to="-189119987#8"/>
    <trip id="veh67" type="veh_passenger" depart="270.69" departLane="best" departSpeed="max" from="1082230864" to="-189119993#0"/>
    <trip id="veh68" type="veh_passenger" depart="274.73" departLane="best" from="-189119888#0" to="-189120054#7"/>
    <trip id="veh69" type="veh_passenger" depart="278.77" departLane="best" departSpeed="max" from="968343038#0" to="189119885#1"/>
    <trip id="veh70" type="veh_passenger" depart="282.81" departLane="best" from="-419815397#1" to="1309216445"/>
    <trip id="veh71" type="veh_passenger" depart="286.85" departLane="best" from="-189119761#0" to="-189120002"/>
    <trip id="veh72" type="veh_passenger" depart="290.89" departLane="best" from="189119741#4" to="189119771"/>
    <trip id="veh73" type="veh_passenger" depart="294.93" departLane="best" departSpeed="max" from="-189119928#1" to="-189119996#3"/>
    <trip id="veh74" type="veh_passenger" depart="298.97" departLane="best" departSpeed="max" from="-1306141402" to="189119854"/>
    <trip id="veh75" type="veh_passenger" depart="303.01" departLane="best" departSpeed="max" from="-189119928#1" to="413294910#0"/>
    <trip id="veh76" type="veh_passenger" depart="307.05" departLane="best" from="-189120054#3" to="189101694#7"/>
    <trip id="veh77" type="veh_passenger" depart="311.09" departLane="best" from="-189119934#0" to="189119915#0"/>
    <trip id="veh78" type="veh_passenger" depart="315.13" departLane="best" from="189119909#0" to="-189119875#0"/>
    <trip id="veh79" type="veh_passenger" depart="319.17" departLane="best" from="419660049#0" to="189119761#0"/>
    <trip id="veh80" type="veh_passenger" depart="323.21" departLane="best" from="-419669084" to="189120034#0"/>
    <trip id="veh81" type="veh_passenger" depart="327.25" departLane="best" from="-189120022#2" to="-189119962#2"/>
    <trip id="veh83" type="veh_passenger" depart="335.33" departLane="best" departSpeed="max" from="-189120071#3" to="1097257590#8"/>
    <trip id="veh84" type="veh_passenger" depart="339.37" departLane="best" departSpeed="max" from="189119944" to="189119921#0"/>
    <trip id="veh85" type="veh_passenger" depart="343.41" departLane="best" from="692189657#0" to="-189119768#0"/>
    <trip id="veh86" type="veh_passenger" depart="347.45" departLane="best" from="-189120061#2" to="-189120063#3"/>
    <trip id="veh87" type="veh_passenger" depart="351.49" departLane="best" from="189120048#9" to="-189120016#1"/>
    <trip id="veh88" type="veh_passenger" depart="355.53" departLane="best" departSpeed="max" from="-189120071#3" to="189120045#0"/>
    <trip id="veh89" type="veh_passenger" depart="359.57" departLane="best" from="-189119960#1" to="419660061#2"/>
    <trip id="veh90" type="veh_passenger" depart="363.61" departLane="best" from="-412001111#5" to="189120063#11"/>
    <trip id="veh91" type="veh_passenger" depart="367.65" departLane="best" from="-1082071250#0" to="-189120055#3"/>
    <trip id="veh93" type="veh_passenger" depart="375.74" departLane="best" from="189120050#4" to="-189119925#0"/>
    <trip id="veh94" type="veh_passenger" depart="379.78" departLane="best" from="-419815216#3" to="-189119988#2"/>
    <trip id="veh95" type="veh_passenger" depart="383.82" departLane="best" from="-189120054#5" to="692189657#1"/>
    <trip id="veh96" type="veh_passenger" depart="387.86" departLane="best" departSpeed="max" from="-189119979#3" to="189120032#2"/>
    <trip id="veh97" type="veh_passenger" depart="391.90" departLane="best" from="-419660030" to="968343038#4"/>
    <trip id="veh98" type="veh_passenger" depart="395.94" departLane="best" departSpeed="max" from="419815217#0" to="946227776"/>
    <trip id="veh99" type="veh_passenger" depart="399.98" departLane="best" from="1082237036#5" to="189119985#2"/>
    <trip id="veh100" type="veh_passenger" depart="404.02" departLane="best" from="-189119787" to="-189120050#3"/>
    <trip id="veh101" type="veh_passenger" depart="408.06" departLane="best" from="632784890#1" to="189119769#3"/>
    <trip id="veh102" type="veh_passenger" depart="412.10" departLane="best" departSpeed="max" from="1082230867" to="189120008#0"/>
    <trip id="veh103" type="veh_passenger" depart="416.14" departLane="best" departSpeed="max" from="-1241857861" to="189119769#5"/>
    <trip id="veh105" type="veh_passenger" depart="424.22" departLane="best" departSpeed="max" from="-1311177829" to="189119960#2"/>
    <trip id="veh106" type="veh_passenger" depart="428.26" departLane="best" from="1206769078" to="189119922#1"/>
    <trip id="veh107" type="veh_passenger" depart="432.30" departLane="best" from="189120063#2" to="-189120015#2"/>
    <trip id="veh108" type="veh_passenger" depart="436.34" departLane="best" from="1187803210" to="189119836"/>
    <trip id="veh109" type="veh_passenger" depart="440.38" departLane="best" departSpeed="max" from="1081735659" to="419669084"/>
    <trip id="veh110" type="veh_passenger" depart="444.42" departLane="best" from="-189119891#0" to="189119979#3"/>
    <trip id="veh111" type="veh_passenger" depart="448.46" departLane="best" from="-189119934#1" to="-189120008#1"/>
    <trip id="veh112" type="veh_passenger" depart="452.50" departLane="best" from="189119840" to="-189120050#7"/>
    <trip id="veh113" type="veh_passenger" depart="456.54" departLane="best" from="-189120017#1" to="189120011#2"/>
    <trip id="veh114" type="veh_passenger" depart="460.58" departLane="best" departSpeed="max" from="-1306141402" to="1082242460"/>
    <trip id="veh115" type="veh_passenger" depart="464.62" departLane="best" departSpeed="max" from="-189119979#3" to="419660069"/>
    <trip id="veh116" type="veh_passenger" depart="468.66" departLane="best" from="189120058#7" to="35344365#0"/>
    <trip id="veh117" type="veh_passenger" depart="472.70" departLane="best" from="-189120053#0" to="-189119913#1"/>
    <trip id="veh118" type="veh_passenger" depart="476.74" departLane="best" from="189120047#2" to="189119962#0"/>
    <trip id="veh119" type="veh_passenger" depart="480.78" departLane="best" from="-189101694#1" to="-692189657#4"/>
    <trip id="veh120" type="veh_passenger" depart="484.82" departLane="best" from="-189119769#4" to="-1082230864"/>
    <trip id="veh121" type="veh_passenger" depart="488.86" departLane="best" from="189120032#0" to="-189120050#7"/>
    <trip id="veh122" type="veh_passenger" depart="492.90" departLane="best" from="189119788" to="419669103#1"/>
    <trip id="veh123" type="veh_passenger" depart="496.94" departLane="best" departSpeed="max" from="-189119769#5" to="-189119822#1"/>
    <trip id="veh124" type="veh_passenger" depart="500.98" departLane="best" from="-189119741#3" to="189108345#4"/>
    <trip id="veh125" type="veh_passenger" depart="505.02" departLane="best" departSpeed="max" from="-189119985#2" to="189119788"/>
    <trip id="veh126" type="veh_passenger" depart="509.06" departLane="best" from="-419815216#8" to="413294910#0"/>
    <trip id="veh127" type="veh_passenger" depart="513.10" departLane="best" from="189120050#1" to="-189119759"/>
    <trip id="veh128" type="veh_passenger" depart="517.14" departLane="best" departSpeed="max" from="-189120071#3" to="-189120041#1"/>
    <trip id="veh129" type="veh_passenger" depart="521.18" departLane="best" from="-1082071253" to="189120022#0"/>
    <trip id="veh130" type="veh_passenger" depart="525.22" departLane="best" from="-189119753#6" to="-189120025#2"/>
    <trip id="veh131" type="veh_passenger" depart="529.26" departLane="best" from="189119961#2" to="189108345#4"/>
    <trip id="veh132" type="veh_passenger" depart="533.30" departLane="best" from="-411370232#1" to="-1082230864"/>
    <trip id="veh133" type="veh_passenger" depart="537.34" departLane="best" departSpeed="max" from="-1309216445" to="411370232#0"/>
    <trip id="veh134" type="veh_passenger" depart="541.38" departLane="best" from="-411370232#1" to="189108285"/>
    <trip id="veh135" type="veh_passenger" depart="545.42" departLane="best" from="189120047#3" to="189119769#5"/>
    <trip id="veh136" type="veh_passenger" depart="549.46" departLane="best" from="-189119784#1" to="-189119860"/>
    <trip id="veh137" type="veh_passenger" depart="553.50" departLane="best" from="189120015#1" to="189120063#11"/>
    <trip id="veh138" type="veh_passenger" depart="557.54" departLane="best" from="-35344365#0" to="189119987#5"/>
    <trip id="veh139" type="veh_passenger" depart="561.58" departLane="best" from="-189119960#1" to="-189119773#0"/>
    <trip id="veh140" type="veh_passenger" depart="565.62" departLane="best" from="-189120062#0" to="189119836"/>
    <trip id="veh141" type="veh_passenger" depart="569.66" departLane="best" from="189120054#9" to="1097257590#9"/>
    <trip id="veh142" type="veh_passenger" depart="573.70" departLane="best" departSpeed="max" from="-1082241574#1" to="189119998#0"/>
    <trip id="veh143" type="veh_passenger" depart="577.74" departLane="best" from="-189120032#0" to="419660069"/>
    <trip id="veh144" type="veh_passenger" depart="581.78" departLane="best" from="189120017#2" to="189120063#5"/>
    <trip id="veh145" type="veh_passenger" depart="585.82" departLane="best" from="-189120025#0" to="-189120032#0"/>
    <trip id="veh146" type="veh_passenger" depart="589.86" departLane="best" from="189120011#3" to="189119784#1"/>
    <trip id="veh147" type="veh_passenger" depart="593.90" departLane="best" from="189120058#13" to="189120063#11"/>
    <trip id="veh148" type="veh_passenger" depart="597.94" departLane="best" from="-189119916#2" to="189120050#3"/>
    <trip id="veh149" type="veh_passenger" depart="601.98" departLane="best" from="-419660061#1" to="-189120054#10"/>
    <trip id="veh150" type="veh_passenger" depart="606.02" departLane="best" from="-189120015#0" to="-189120005#2"/>
    <trip id="veh151" type="veh_passenger" depart="610.06" departLane="best" departSpeed="max" from="-1082241574#1" to="-189119966#2"/>
    <trip id="veh152" type="veh_passenger" depart="614.10" departLane="best" from="-189120025#3" to="189120063#5"/>
    <trip id="veh153" type="veh_passenger" depart="618.14" departLane="best" from="632784890#0" to="-189120045#1"/>
    <trip id="veh154" type="veh_passenger" depart="622.18" departLane="best" departSpeed="max" from="189119754" to="-419815217#0"/>
    <trip id="veh155" type="veh_passenger" depart="626.23" departLane="best" from="649431234" to="189101694#8"/>
    <trip id="veh156" type="veh_passenger" depart="630.27" departLane="best" from="419660061#2" to="-189119822#1"/>
    <trip id="veh158" type="veh_passenger" depart="638.35" departLane="best" from="-413294910#1" to="-189120030#1"/>
    <trip id="veh159" type="veh_passenger" depart="642.39" departLane="best" from="-189119753#0" to="1082083695#3"/>
    <trip id="veh160" type="veh_passenger" depart="646.43" departLane="best" departSpeed="max" from="189119944" to="189120054#9"/>
    <trip id="veh161" type="veh_passenger" depart="650.47" departLane="best" from="1242125960" to="1306141402"/>
    <trip id="veh162" type="veh_passenger" depart="654.51" departLane="best" from="-189120055#2" to="189119768#1"/>
    <trip id="veh163" type="veh_passenger" depart="658.55" departLane="best" from="-189119962#1" to="-189119967#1"/>
    <trip id="veh164" type="veh_passenger" depart="662.59" departLane="best" from="-1082071250#1" to="419660063#1"/>
    <trip id="veh165" type="veh_passenger" depart="666.63" departLane="best" departSpeed="max" from="1082230864" to="189119985#2"/>
    <trip id="veh166" type="veh_passenger" depart="670.67" departLane="best" from="189119962#0" to="189119916#0"/>
    <trip id="veh167" type="veh_passenger" depart="674.71" departLane="best" from="-189120050#1" to="189101694#6"/>
    <trip id="veh168" type="veh_passenger" depart="678.75" departLane="best" from="189119812" to="189120058#8"/>
    <trip id="veh169" type="veh_passenger" depart="682.79" departLane="best" from="189119925#1" to="-189120053#0"/>
    <trip id="veh170" type="veh_passenger" depart="686.83" departLane="best" from="-189120014#4" to="649431234"/>
    <trip id="veh171" type="veh_passenger" depart="690.87" departLane="best" from="189120061#2" to="189120050#2"/>
    <trip id="veh172" type="veh_passenger" depart="694.91" departLane="best" from="-189119768#1" to="-968343038#1"/>
    <trip id="veh173" type="veh_passenger" depart="698.95" departLane="best" from="419660061#4" to="189119925#1"/>
    <trip id="veh174" type="veh_passenger" depart="702.99" departLane="best" from="411370232#0" to="189119835"/>
    <trip id="veh175" type="veh_passenger" depart="707.03" departLane="best" from="-189120011#1" to="189108345#1"/>
    <trip id="veh176" type="veh_passenger" depart="711.07" departLane="best" from="-1081735660#1" to="189120048#1"/>
    <trip id="veh177" type="veh_passenger" depart="715.11" departLane="best" departSpeed="max" from="-411370275" to="189119769#4"/>
    <trip id="veh178" type="veh_passenger" depart="719.15" departLane="best" from="189119773#0" to="1097257590#6"/>
    <trip id="veh179" type="veh_passenger" depart="723.19" departLane="best" from="-412001111#4" to="-189119988#2"/>
    <trip id="veh180" type="veh_passenger" depart="727.23" departLane="best" from="-419669084" to="-413290041#1"/>
    <trip id="veh181" type="veh_passenger" depart="731.27" departLane="best" from="-189120015#1" to="-189119929"/>
    <trip id="veh182" type="veh_passenger" depart="735.31" departLane="best" departSpeed="max" from="-142938792#1" to="1309212759"/>
    <trip id="veh183" type="veh_passenger" depart="739.35" departLane="best" from="189120032#1" to="189120011#1"/>
    <trip id="veh184" type="veh_passenger" depart="743.39" departLane="best" from="189119841" to="-189120002"/>
    <trip id="veh185" type="veh_passenger" depart="747.43" departLane="best" from="-189119885#0" to="-1082237036#2"/>
    <trip id="veh186" type="veh_passenger" depart="751.47" departLane="best" departSpeed="max" from="-189119957#2" to="1171049483"/>
    <trip id="veh187" type="veh_passenger" depart="755.51" departLane="best" from="189120050#6" to="-189108285"/>
    <trip id="veh188" type="veh_passenger" depart="759.55" departLane="best" from="-189120063#5" to="189119854"/>
    <trip id="veh189" type="veh_passenger" depart="763.59" departLane="best" from="-189119879#0" to="189119957#2"/>
    <trip id="veh190" type="veh_passenger" depart="767.63" departLane="best" departSpeed="max" from="-419815219" to="-189120014#4"/>
    <trip id="veh191" type="veh_passenger" depart="771.67" departLane="best" from="189119773#1" to="-1082083701"/>
    <trip id="veh192" type="veh_passenger" depart="775.71" departLane="best" departSpeed="max" from="189119967#0" to="189120019#2"/>
    <trip id="veh193" type="veh_passenger" depart="779.75" departLane="best" from="-189119741#3" to="1081735660#2"/>
    <trip id="veh194" type="veh_passenger" depart="783.79" departLane="best" from="-189119848#0" to="419815220"/>
    <trip id="veh195" type="veh_passenger" depart="787.83" departLane="best" from="-946227776" to="-1241857862#1"/>
    <trip id="veh196" type="veh_passenger" depart="791.87" departLane="best" from="-189119960#0" to="189120058#6"/>
    <trip id="veh197" type="veh_passenger" depart="795.91" departLane="best" from="-419660041#1" to="189120047#0"/>
    <trip id="veh198" type="veh_passenger" depart="799.95" departLane="best" from="1206769078" to="419815216#8"/>
    <trip id="veh199" type="veh_passenger" depart="803.99" departLane="best" from="-189120063#5" to="189119834"/>
    <trip id="veh200" type="veh_passenger" depart="808.03" departLane="best" from="189119925#0" to="1242129201"/>
    <trip id="veh201" type="veh_passenger" depart="812.07" departLane="best" from="189120045#2" to="189108345#1"/>
    <trip id="veh202" type="veh_passenger" depart="816.11" departLane="best" from="31978109#0" to="189120006#0"/>
    <trip id="veh203" type="veh_passenger" depart="820.15" departLane="best" departSpeed="max" from="-419669103#1" to="189120022#4"/>
    <trip id="veh205" type="veh_passenger" depart="828.23" departLane="best" departSpeed="max" from="-1309216445" to="-189120047#5"/>
    <trip id="veh206" type="veh_passenger" depart="832.27" departLane="best" departSpeed="max" from="-189119985#2" to="189120058#11"/>
    <trip id="veh207" type="veh_passenger" depart="836.31" departLane="best" departSpeed="max" from="1082230864" to="-189119883#1"/>
    <trip id="veh208" type="veh_passenger" depart="840.35" departLane="best" departSpeed="max" from="-189119928#1" to="189119957#1"/>
    <trip id="veh209" type="veh_passenger" depart="844.39" departLane="best" from="189119899#0" to="189101694#0"/>
    <trip id="veh210" type="veh_passenger" depart="848.43" departLane="best" from="-189120062#1" to="189108274#6"/>
    <trip id="veh211" type="veh_passenger" depart="852.47" departLane="best" from="-189120063#8" to="-189119987#0"/>
    <trip id="veh212" type="veh_passenger" depart="856.51" departLane="best" departSpeed="max" from="-189120071#3" to="413294910#4"/>
    <trip id="veh213" type="veh_passenger" depart="860.55" departLane="best" departSpeed="max" from="1185205341" to="189119957#2"/>
    <trip id="veh214" type="veh_passenger" depart="864.59" departLane="best" from="189120054#10" to="189120017#0"/>
    <trip id="veh215" type="veh_passenger" depart="868.63" departLane="best" from="-189120047#2" to="189120013#0"/>
    <trip id="veh216" type="veh_passenger" depart="872.67" departLane="best" from="-189120053#2" to="419815219"/>
    <trip id="veh217" type="veh_passenger" depart="876.72" departLane="best" departSpeed="max" from="1082230868" to="189119785"/>
    <trip id="veh218" type="veh_passenger" depart="880.76" departLane="best" from="-189119915#1" to="-189119996#2"/>
    <trip id="veh219" type="veh_passenger" depart="884.80" departLane="best" departSpeed="max" from="-411370285#1" to="-1082237036#9"/>
    <trip id="veh220" type="veh_passenger" depart="888.84" departLane="best" from="-189120034#2" to="189119928#1"/>
    <trip id="veh221" type="veh_passenger" depart="892.88" departLane="best" from="-189120061#4" to="-189119922#1"/>
    <trip id="veh222" type="veh_passenger" depart="896.92" departLane="best" from="-419660067#1" to="-189119860"/>
    <trip id="veh224" type="veh_passenger" depart="905.00" departLane="best" from="-189120058#17" to="189119753#7"/>
    <trip id="veh225" type="veh_passenger" depart="909.04" departLane="best" from="-1082242460" to="189119876#0"/>
    <trip id="veh227" type="veh_passenger" depart="917.12" departLane="best" departSpeed="max" from="-1241857520" to="-419660061#2"/>
    <trip id="veh228" type="veh_passenger" depart="921.16" departLane="best" from="-189119894#2" to="-189120058#4"/>
    <trip id="veh229" type="veh_passenger" depart="925.20" departLane="best" from="189119987#8" to="-419660061#2"/>
    <trip id="veh230" type="veh_passenger" depart="929.24" departLane="best" from="-189119961#1" to="-189119753#2"/>
    <trip id="veh231" type="veh_passenger" depart="933.28" departLane="best" from="-1211207436" to="189108274#2"/>
    <trip id="veh232" type="veh_passenger" depart="937.32" departLane="best" from="-1082071250#0" to="-411370232#0"/>
    <trip id="veh233" type="veh_passenger" depart="941.36" departLane="best" from="189119768#0" to="189120030#2"/>
    <trip id="veh234" type="veh_passenger" depart="945.40" departLane="best" from="419815216#1" to="-189119967#2"/>
    <trip id="veh235" type="veh_passenger" depart="949.44" departLane="best" from="1082237036#8" to="-189119894#4"/>
    <trip id="veh236" type="veh_passenger" depart="953.48" departLane="best" from="189119893#0" to="-189120017#2"/>
    <trip id="veh237" type="veh_passenger" depart="957.52" departLane="best" departSpeed="max" from="-189119835" to="189119821"/>
    <trip id="veh238" type="veh_passenger" depart="961.56" departLane="best" departSpeed="max" from="189119967#0" to="-189119822#0"/>
    <trip id="veh239" type="veh_passenger" depart="965.60" departLane="best" from="-189120032#2" to="420270101"/>
    <trip id="veh240" type="veh_passenger" depart="969.64" departLane="best" from="-189119753#0" to="-1082237036#5"/>