<edges>
    <edge id="A" from="1" to="2" length="100"/>
    <edge id="B" from="2" to="3" length="100"/>
</edges>
