<?xml version="1.0" encoding="UTF-8"?>

<!-- generated on 2025-03-19 21:52:49 by Eclipse SUMO netconvert Version 1.22.0
<netconvertConfiguration xmlns:xsi="http://www.w3.org/2001/XMLSchema-instance" xsi:noNamespaceSchemaLocation="http://sumo.dlr.de/xsd/netconvertConfiguration.xsd">

    <input>
        <node-files value="network/traffic.nod.xml"/>
        <edge-files value="network/traffic.edg.xml"/>
        <connection-files value="network/traffic.con.xml"/>
    </input>

    <output>
        <output-file value="network/traffic.net.xml"/>
    </output>

</netconvertConfiguration>
-->

<net version="1.20" junctionCornerDetail="5" limitTurnSpeed="5.50" xmlns:xsi="http://www.w3.org/2001/XMLSchema-instance" xsi:noNamespaceSchemaLocation="http://sumo.dlr.de/xsd/net_file.xsd">

    <location netOffset="0.00,0.00" convBoundary="0.00,0.00,200.00,0.00" origBoundary="0.00,0.00,200.00,0.00" projParameter="!"/>

    <edge id=":2_0" function="internal">
        <lane id=":2_0_0" index="0" speed="13.89" length="0.10" shape="100.00,-1.60 100.00,-1.60"/>
    </edge>

    <edge id="A" from="1" to="2" priority="-1" length="100.00">
        <lane id="A_0" index="0" speed="13.89" length="100.00" shape="0.00,-1.60 100.00,-1.60"/>
    </edge>
    <edge id="B" from="2" to="3" priority="-1" length="100.00">
        <lane id="B_0" index="0" speed="13.89" length="100.00" shape="100.00,-1.60 200.00,-1.60"/>
    </edge>

    <junction id="1" type="dead_end" x="0.00" y="0.00" incLanes="" intLanes="" shape="0.00,0.00 0.00,-3.20"/>
    <junction id="2" type="priority" x="100.00" y="0.00" incLanes="A_0" intLanes=":2_0_0" shape="100.00,0.00 100.00,-3.20 100.00,0.00">
        <request index="0" response="0" foes="0" cont="0"/>
    </junction>
    <junction id="3" type="dead_end" x="200.00" y="0.00" incLanes="B_0" intLanes="" shape="200.00,-3.20 200.00,0.00"/>

    <connection from="A" to="B" fromLane="0" toLane="0" via=":2_0_0" dir="s" state="M"/>

    <connection from=":2_0" to="B" fromLane="0" toLane="0" dir="s" state="M"/>

</net>
