<connections>
    <connection from="A" to="B" fromLane="0" toLane="0" via="1"/>
</connections>
