<?xml version="1.0" encoding="UTF-8"?>

<!-- generated on 2025-03-21 11:48:35 by Eclipse SUMO polyconvert Version 1.22.0
<polyconvertConfiguration xmlns:xsi="http://www.w3.org/2001/XMLSchema-instance" xsi:noNamespaceSchemaLocation="http://sumo.dlr.de/xsd/polyconvertConfiguration.xsd">

    <input>
        <net-file value="osm.net.xml.gz"/>
        <osm-files value="osm_bbox.osm.xml.gz"/>
        <osm.keep-full-type value="true"/>
        <osm.merge-relations value="1"/>
        <type-file value="${SUMO_HOME}\data\typemap\osmPolyconvert.typ.xml"/>
    </input>

    <output>
        <output-file value="osm.poly.xml.gz"/>
    </output>

    <report>
        <verbose value="true"/>
    </report>

</polyconvertConfiguration>
-->

<additional xmlns:xsi="http://www.w3.org/2001/XMLSchema-instance" xsi:noNamespaceSchemaLocation="http://sumo.dlr.de/xsd/additional_file.xsd">
    <location netOffset="-695839.67,-3149252.42" convBoundary="-7.70,-3.34,4222.74,2505.09" origBoundary="77.000340,28.455094,77.043186,28.477126" projParameter="+proj=utm +zone=43 +ellps=WGS84 +datum=WGS84 +units=m +no_defs"/>

    <poly id="1150157727" type="building.yes" color="255,230,230" fill="1" layer="-1.00" shape="2702.610487,241.801563 2706.464355,235.769707 2710.031471,238.024761 2706.177601,244.056616 2702.610487,241.801563"/>
    <poly id="1179886500" type="landuse.basin" color="194,194,130" fill="1" layer="-3.00" shape="2181.997147,1490.446068 2180.094543,1494.072158 2180.066729,1503.871011 2184.597970,1507.605408 2188.966945,1505.849898 2192.024906,1503.418292 2192.879687,1499.774564 2188.926788,1492.524805 2186.495673,1488.559716 2181.997147,1490.446068"/>
    <poly id="1179886500#1" type="natural.water" color="181,209,209" fill="1" layer="-4.00" shape="2181.997147,1490.446068 2180.094543,1494.072158 2180.066729,1503.871011 2184.597970,1507.605408 2188.966945,1505.849898 2192.024906,1503.418292 2192.879687,1499.774564 2188.926788,1492.524805 2186.495673,1488.559716 2181.997147,1490.446068"/>
    <poly id="1179886501" type="landuse.basin" color="194,194,130" fill="1" layer="-3.00" shape="2136.331677,1393.746096 2131.178983,1403.070715 2132.009244,1408.449924 2139.061958,1410.785658 2146.399603,1420.054443 2151.968557,1424.992405 2158.169001,1423.256623 2162.587526,1417.976841 2160.116933,1408.789965 2153.985022,1398.887438 2147.834541,1389.505608 2144.585921,1386.967848 2136.331677,1393.746096"/>
    <poly id="1179886501#1" type="natural.water" color="181,209,209" fill="1" layer="-4.00" shape="2136.331677,1393.746096 2131.178983,1403.070715 2132.009244,1408.449924 2139.061958,1410.785658 2146.399603,1420.054443 2151.968557,1424.992405 2158.169001,1423.256623 2162.587526,1417.976841 2160.116933,1408.789965 2153.985022,1398.887438 2147.834541,1389.505608 2144.585921,1386.967848 2136.331677,1393.746096"/>
    <poly id="1179886502" type="leisure.pitch" color="207,245,201" fill="1" layer="-2.00" shape="2586.817163,2005.548069 2608.056683,2034.938685 2657.234201,1999.763707 2636.004331,1970.384247 2586.817163,2005.548069"/>
    <poly id="1195599107" type="leisure.pitch" color="207,245,201" fill="1" layer="-2.00" shape="2850.284900,204.664092 2862.925314,173.750169 2882.298728,180.395858 2869.349418,211.614934 2850.284900,204.664092"/>
    <poly id="1195599107#1" type="sport.basketball" color="79,230,125" fill="1" layer="-2.00" shape="2850.284900,204.664092 2862.925314,173.750169 2882.298728,180.395858 2869.349418,211.614934 2850.284900,204.664092"/>
    <poly id="1195599108" type="leisure.pitch" color="207,245,201" fill="1" layer="-2.00" shape="3013.054822,205.351336 3019.517189,183.522832 3030.228760,186.198008 3024.125750,208.209943 3013.054822,205.351336"/>
    <poly id="1195599108#1" type="sport.tennis" color="79,230,125" fill="1" layer="-2.00" shape="3013.054822,205.351336 3019.517189,183.522832 3030.228760,186.198008 3024.125750,208.209943 3013.054822,205.351336"/>
    <poly id="1216240570" type="building.yes" color="255,230,230" fill="1" layer="-1.00" shape="2174.959985,2056.227537 2173.612393,2053.655248 2175.865190,2052.495975 2174.194921,2049.308567 2179.431865,2046.603268 2176.879273,2041.716051 2184.645633,2037.712031 2190.206473,2048.347703 2174.959985,2056.227537"/>
    <poly id="1270574306" type="leisure.park" color="207,245,201" fill="1" layer="-2.00" shape="1738.930699,1283.684461 1749.607719,1251.040593 1788.969693,1251.457897 1787.812197,1260.883021 1738.930699,1283.684461"/>
    <poly id="1270574307" type="leisure.pitch" color="207,245,201" fill="1" layer="-2.00" shape="1255.633681,1483.534631 1268.419604,1473.428602 1288.288296,1496.020510 1274.369901,1506.484435 1255.633681,1483.534631"/>
    <poly id="1270574307#1" type="sport.basketball" color="79,230,125" fill="1" layer="-2.00" shape="1255.633681,1483.534631 1268.419604,1473.428602 1288.288296,1496.020510 1274.369901,1506.484435 1255.633681,1483.534631"/>
    <poly id="1270574308" type="leisure.park" color="207,245,201" fill="1" layer="-2.00" shape="1459.167906,1381.704197 1564.549483,1330.296600 1587.688718,1369.870956 1530.534904,1397.101457 1471.467489,1422.803624 1459.167906,1381.704197"/>
    <poly id="1270574309" type="leisure.park" color="207,245,201" fill="1" layer="-2.00" shape="1566.261826,1524.204805 1613.152564,1493.288237 1633.620985,1516.877426 1589.070283,1550.194325 1566.261826,1524.204805"/>
    <poly id="1270574310" type="leisure.park" color="207,245,201" fill="1" layer="-2.00" shape="12.420097,1548.612747 56.079394,1563.816841 32.466783,1624.169742 12.420097,1548.612747"/>
    <poly id="1337102007" type="building.yes" color="255,230,230" fill="1" layer="-1.00" shape="3173.509406,996.325318 3186.681970,1007.511470 3167.515232,1029.856627 3154.342677,1018.670496 3173.509406,996.325318"/>
    <poly id="1337102008" type="tourism.hotel" color="207,245,201" fill="1" layer="-2.00" shape="3168.660084,987.075777 3193.763775,1009.870493 3176.376214,1027.800543 3182.371606,1033.577617 3170.348761,1045.346333 3140.538091,1021.685002 3145.510277,1015.561346 3165.568742,990.881162 3168.660084,987.075777"/>
    <poly id="1337102009" type="building.yes" color="255,230,230" fill="1" layer="-1.00" shape="3189.109579,961.870148 3191.639623,959.396591 3197.928514,965.777240 3195.398470,968.250795 3189.109579,961.870148"/>
    <poly id="1363044633" type="building.yes" color="255,230,230" fill="1" layer="-1.00" shape="2036.377563,2361.365424 2039.355550,2359.597561 2034.835887,2351.118920 2031.859950,2352.764881 2036.377563,2361.365424"/>
    <poly id="1363044634" type="building.yes" color="255,230,230" fill="1" layer="-1.00" shape="2039.731933,2358.184988 2043.616758,2356.077658 2039.064363,2347.797999 2035.189329,2349.905494 2039.731933,2358.184988"/>
    <poly id="1363044758" type="building.yes" color="255,230,230" fill="1" layer="-1.00" shape="2043.824255,2355.970298 2046.601742,2354.476193 2042.183827,2346.353988 2039.416131,2347.848259 2043.824255,2355.970298"/>
    <poly id="1363044759" type="building.yes" color="255,230,230" fill="1" layer="-1.00" shape="2046.796651,2354.534899 2050.681478,2352.427572 2046.129087,2344.147909 2042.254050,2346.255402 2046.796651,2354.534899"/>
    <poly id="1363601730" type="building.yes" color="255,230,230" fill="1" layer="-1.00" shape="3723.551792,1968.468127 3719.558453,1957.315049 3728.287196,1953.206394 3730.948671,1960.878256 3725.637066,1962.761314 3727.549340,1967.250061 3723.551792,1968.468127"/>
    <poly id="1363601731" type="building.yes" color="255,230,230" fill="1" layer="-1.00" shape="3732.773174,1964.766907 3729.934280,1956.005673 3732.440182,1954.950747 3735.375118,1963.824465 3732.773174,1964.766907"/>
    <poly id="1365508461" type="building.house" color="255,230,230" fill="1" layer="-1.00" shape="3403.459795,194.539289 3397.290075,189.779027 3391.504436,197.052788 3397.960429,201.684870 3403.459795,194.539289"/>
    <poly id="144068828" type="leisure.sports_centre" color="207,245,201" fill="1" layer="-2.00" shape="2814.827435,210.084812 2899.204078,247.913270 2907.558668,238.166326 2927.085879,257.740083 2939.532390,263.836566 2956.872628,268.463793 2970.268584,269.388455 2983.024971,266.998926 2986.274838,267.153598 2978.895119,281.240203 2986.322985,285.179015 3023.349210,215.901066 3046.981685,171.671219 3036.742684,165.379139 3038.879996,126.439539 2992.672904,105.317403 2860.542007,94.993705 2814.827435,210.084812"/>
    <poly id="144068835" type="leisure.pitch" color="207,245,201" fill="1" layer="-2.00" shape="2876.297904,122.684582 2915.475935,124.953498 2916.634934,105.052904 2877.456837,102.783988 2876.297904,122.684582"/>
    <poly id="144068835#1" type="sport.football" color="79,230,125" fill="1" layer="-2.00" shape="2876.297904,122.684582 2915.475935,124.953498 2916.634934,105.052904 2877.456837,102.783988 2876.297904,122.684582"/>
    <poly id="189074074" type="landuse.commercial" color="209,209,204" fill="1" layer="-3.00" shape="852.118933,2025.948362 769.619708,2228.424212 866.139724,2265.211389 963.025097,2136.737286 993.044369,2086.536284 852.118933,2025.948362"/>
    <poly id="189074115" type="landuse.residential" color="235,235,227" fill="1" layer="-3.00" shape="179.433208,2348.322798 1685.762306,2070.404285 1426.831126,1951.847864 1231.651819,1867.210834 508.188394,1550.027148 179.433208,2348.322798"/>
    <poly id="189074970" type="leisure.park" color="207,245,201" fill="1" layer="-2.00" shape="733.504357,1813.625226 817.323151,1850.443326 836.509741,1807.221806 752.680885,1770.403423 733.504357,1813.625226"/>
    <poly id="189074972" type="leisure.park" color="207,245,201" fill="1" layer="-2.00" shape="612.978645,2241.458612 594.394239,2286.242384 631.701187,2301.564476 650.285720,2256.780756 612.978645,2241.458612"/>
    <poly id="189074978" type="leisure.park" color="207,245,201" fill="1" layer="-2.00" shape="484.987145,1879.598706 541.634907,1902.315551 555.498079,1868.105633 498.860145,1845.377813 484.987145,1879.598706"/>
    <poly id="189074981" type="leisure.park" color="207,245,201" fill="1" layer="-2.00" shape="1176.932329,1892.576975 1143.203330,1971.204266 1194.108618,1992.819449 1210.968135,1953.516858 1227.837734,1914.203368 1176.932329,1892.576975"/>
    <poly id="189074985" type="leisure.park" color="207,245,201" fill="1" layer="-2.00" shape="585.437727,2410.800240 622.199446,2425.902609 585.437727,2410.800240"/>
    <poly id="189074989" type="amenity.school" color="237,199,199" fill="1" layer="-2.00" shape="647.409714,1657.361025 609.736976,1745.922486 678.184370,1774.745398 715.857381,1686.195211 647.409714,1657.361025"/>
    <poly id="189074993" type="leisure.pitch" color="207,245,201" fill="1" layer="-2.00" shape="779.327479,2136.380499 766.698781,2167.030335 783.480539,2173.873294 796.099484,2143.223310 779.327479,2136.380499"/>
    <poly id="189074993#1" type="sport.tennis" color="79,230,125" fill="1" layer="-2.00" shape="779.327479,2136.380499 766.698781,2167.030335 783.480539,2173.873294 796.099484,2143.223310 779.327479,2136.380499"/>
    <poly id="189074997" type="leisure.swimming_pool" color="207,245,201" fill="1" layer="-2.00" shape="698.646621,2159.252857 709.101514,2181.298515 727.918312,2172.456712 717.463259,2150.422119 698.646621,2159.252857"/>
    <poly id="189074997#1" type="sport.swimming" color="79,230,125" fill="1" layer="-2.00" shape="698.646621,2159.252857 709.101514,2181.298515 727.918312,2172.456712 717.463259,2150.422119 698.646621,2159.252857"/>
    <poly id="189075001" type="amenity.school" color="237,199,199" fill="1" layer="-2.00" shape="440.956004,2360.965645 500.918472,2385.056928 440.956004,2360.965645"/>
    <poly id="189075012" type="leisure.park" color="207,245,201" fill="1" layer="-2.00" shape="1518.397955,2198.621219 1496.838340,2246.546422 1530.807953,2261.660243 1552.357897,2213.734932 1518.397955,2198.621219"/>
    <poly id="189075016" type="leisure.park" color="207,245,201" fill="1" layer="-2.00" shape="303.459224,2143.033231 383.766378,2175.377902 398.024960,2140.320889 317.717590,2107.976134 303.459224,2143.033231"/>
    <poly id="189075019" type="leisure.park" color="207,245,201" fill="1" layer="-2.00" shape="1174.121327,2366.164886 1198.513462,2376.494783 1174.121327,2366.164886"/>
    <poly id="189075022" type="leisure.pitch" color="207,245,201" fill="1" layer="-2.00" shape="791.946444,2105.730510 779.327479,2136.380499 796.099484,2143.223310 808.728280,2112.573500 791.946444,2105.730510"/>
    <poly id="189075022#1" type="sport.tennis" color="79,230,125" fill="1" layer="-2.00" shape="791.946444,2105.730510 779.327479,2136.380499 796.099484,2143.223310 808.728280,2112.573500 791.946444,2105.730510"/>
    <poly id="189075026" type="leisure.park" color="207,245,201" fill="1" layer="-2.00" shape="308.845595,2271.687902 295.221689,2304.538566 373.173029,2336.533576 386.787153,2303.693909 308.845595,2271.687902"/>
    <poly id="189075029" type="leisure.park" color="207,245,201" fill="1" layer="-2.00" shape="431.228446,1954.335050 420.856718,1979.502486 453.895646,1992.979084 464.267622,1967.800591 431.228446,1954.335050"/>
    <poly id="189075033" type="leisure.park" color="207,245,201" fill="1" layer="-2.00" shape="1387.953012,1944.334125 1361.985928,2005.687362 1387.586815,2016.403679 1413.544225,1955.050328 1387.953012,1944.334125"/>
    <poly id="189075035" type="amenity.school" color="237,199,199" fill="1" layer="-2.00" shape="1079.701677,2209.890232 1031.624329,2321.887642 1161.051633,2376.898053 1169.144695,2358.033692 1209.130260,2264.890023 1079.701677,2209.890232"/>
    <poly id="189075039" type="amenity.school" color="237,199,199" fill="1" layer="-2.00" shape="587.281001,2143.291977 679.810599,2182.726732 763.414646,1988.493981 621.447173,1928.002432 557.594340,2076.329899 607.039730,2097.408209 587.281001,2143.291977"/>
    <poly id="189088019" type="landuse.residential" color="235,235,227" fill="1" layer="-3.00" shape="61.471629,2435.591900 285.895058,2416.830139 61.471629,2435.591900"/>
    <poly id="189088020" type="landuse.residential" color="235,235,227" fill="1" layer="-3.00" shape="1881.184763,2342.371087 1757.105615,2402.318226 1695.482706,2391.483597"/>
    <poly id="189088021" type="landuse.residential" color="235,235,227" fill="1" layer="-3.00" shape="503.417339,1530.703795 478.508816,1577.588128 446.652657,1654.585595 266.864508,2089.059361 217.943577,2206.876225 173.265279,2315.252960 151.343116,2368.240051 266.086764,2415.867930 106.291200,2422.692937 58.788717,2425.548468 41.654157,2395.200316 37.074587,2388.472989 -5.009676,2353.574621"/>
    <poly id="189088291" type="leisure.park" color="207,245,201" fill="1" layer="-2.00" shape="86.711536,1813.020408 113.313300,1742.574571 244.881076,1796.113264 251.600538,1819.614798 179.987011,1848.494875 86.711536,1813.020408"/>
    <poly id="189088292" type="leisure.park" color="207,245,201" fill="0" layer="-2.00" shape="-4.764742,2006.538589 -4.969075,2007.045100"/>
    <poly id="190041490" type="landuse.residential" color="235,235,227" fill="1" layer="-3.00" shape="2719.521675,340.379550 2809.697976,376.997220 3085.135801,536.455437 3156.742051,398.324448 2976.646809,304.725103 2794.233368,224.103665 2755.356082,281.245928 2719.521675,340.379550"/>
    <poly id="1951613" type="building.yes" color="255,230,230" fill="1" layer="-1.00" shape="2915.853510,229.637754 2948.684537,121.612354 3021.691261,143.564011 2989.056793,249.774597 2995.012130,258.532786 2984.041121,263.679435 2973.937923,266.169211 2961.972601,266.964753 2947.867936,264.498366 2935.070036,258.905861 2924.363021,250.743652 2916.553286,242.730151 2909.543703,235.483966 2915.853510,229.637754"/>
    <poly id="24515754" type="amenity.bus_station" color="237,199,199" fill="1" layer="-1.00" shape="3020.590140,1174.440459 3150.450963,1251.073814 3241.621035,1179.852537 3232.780457,1129.763783 3183.378305,1143.737878 3085.983298,1086.043581 3020.590140,1174.440459"/>
    <poly id="25527833" type="landuse.residential" color="235,235,227" fill="1" layer="-3.00" shape="1755.951364,50.701674"/>
    <poly id="25528091" type="landuse.commercial" color="209,209,204" fill="1" layer="-3.00" shape="2558.003560,554.947856 3012.761864,917.185620 3098.190080,790.506317 2883.586863,576.349003 2925.041477,476.805309 2762.219917,383.046548 2558.003560,554.947856"/>
    <poly id="25528092" type="landuse.residential" color="235,235,227" fill="1" layer="-3.00" shape="3299.749464,979.051033 3147.583156,846.656983 3197.787034,672.425463 3433.285940,712.604734 3446.452149,893.063328 3454.645571,953.561485 3299.749464,979.051033"/>
    <poly id="25657431" type="landuse.residential" color="235,235,227" fill="1" layer="-3.00" shape="550.303037,215.787015 698.300129,215.109459 976.870971,215.851819 1044.918700,216.956760 596.867484,1323.509506 568.447184,1387.661052 518.691583,1517.013712 313.676482,1451.073400"/>
    <poly id="268222214" type="landuse.residential" color="235,235,227" fill="1" layer="-3.00" shape="3676.348570,136.696714"/>
    <poly id="268266073" type="landuse.retail" color="194,194,130" fill="1" layer="-3.00" shape="4198.724701,455.387601"/>
    <poly id="268266074" type="landuse.residential" color="235,235,227" fill="1" layer="-3.00" shape="3676.348570,136.696714 3823.125779,314.455517 4092.338889,739.359343"/>
    <poly id="268267637" type="landuse.residential" color="235,235,227" fill="1" layer="-3.00" shape="3676.348570,136.696714"/>
    <poly id="281310755" type="amenity.school" color="237,199,199" fill="1" layer="-2.00" shape="1463.299331,1707.710331 1575.101981,1771.973587 1634.567753,1716.625895 1620.183038,1690.677893 1603.962112,1660.907965 1578.569916,1633.633490 1562.470474,1616.458419 1463.299331,1707.710331"/>
    <poly id="348141537" type="building.yes" color="255,230,230" fill="1" layer="-1.00" shape="4005.143254,344.715116 4017.311008,335.465975 4001.726304,315.170155 3989.558544,324.419313 4005.143254,344.715116"/>
    <poly id="348141556" type="building.yes" color="255,230,230" fill="1" layer="-1.00" shape="3729.408946,326.711436 3740.811204,337.169785 3745.750857,331.843934 3734.358392,321.385746 3729.408946,326.711436"/>
    <poly id="348141558" type="building.yes" color="255,230,230" fill="1" layer="-1.00" shape="3618.956030,431.667818 3640.442718,449.413757 3647.852213,440.549188 3626.355913,422.791988 3618.956030,431.667818"/>
    <poly id="348141567" type="building.yes" color="255,230,230" fill="1" layer="-1.00" shape="3753.969799,301.254882 3765.892888,313.351627 3776.711133,302.793466 3764.788043,290.696711 3753.969799,301.254882"/>
    <poly id="348141577" type="building.yes" color="255,230,230" fill="1" layer="-1.00" shape="3640.816082,421.030657 3654.567893,432.160614 3673.495560,409.002847 3659.753531,397.873035 3640.816082,421.030657"/>
    <poly id="348141582" type="building.yes" color="255,230,230" fill="1" layer="-1.00" shape="3929.756726,392.698297 3939.590660,385.305054 3925.954916,367.348169 3916.120977,374.741423 3929.756726,392.698297"/>
    <poly id="348141587" type="building.yes" color="255,230,230" fill="1" layer="-1.00" shape="3941.714593,385.418708 3953.841960,376.811770 3938.165839,354.973627 3926.048258,363.580748 3941.714593,385.418708"/>
    <poly id="348141590" type="building.yes" color="255,230,230" fill="1" layer="-1.00" shape="3960.665581,409.396500 3973.283372,400.177131 3956.419429,377.332198 3943.801630,386.551584 3960.665581,409.396500"/>
    <poly id="348141600" type="building.yes" color="255,230,230" fill="1" layer="-1.00" shape="3979.045949,356.776206 3989.964218,348.414820 3978.058279,333.014696 3967.130024,341.387010 3979.045949,356.776206"/>
    <poly id="348141627" type="building.yes" color="255,230,230" fill="1" layer="-1.00" shape="3565.507293,455.881279 3580.614870,468.519550 3587.003001,460.956788 3571.905213,448.318675 3565.507293,455.881279"/>
    <poly id="348141639" type="building.yes" color="255,230,230" fill="1" layer="-1.00" shape="3660.139832,319.029910 3642.020773,337.246287 3651.223006,346.303762 3669.342068,328.087399 3660.139832,319.029910"/>
    <poly id="348141647" type="building.yes" color="255,230,230" fill="1" layer="-1.00" shape="3600.283364,274.461285 3609.307325,283.637638 3616.240292,276.882259 3607.216330,267.705901 3600.283364,274.461285"/>
    <poly id="348141650" type="building.yes" color="255,230,230" fill="1" layer="-1.00" shape="3900.244644,297.739450 3880.504913,272.883742 3871.856539,279.687464 3880.652262,290.755755 3882.786904,289.084844 3885.117912,292.006583 3883.122077,293.580081 3891.735458,304.423581 3900.244644,297.739450"/>
    <poly id="348141664" type="building.yes" color="255,230,230" fill="1" layer="-1.00" shape="3916.779349,407.520773 3928.254685,420.585611 3938.804638,411.408703 3927.339096,398.344021 3916.779349,407.520773"/>
    <poly id="348141669" type="building.yes" color="255,230,230" fill="1" layer="-1.00" shape="3600.018736,258.859805 3616.871418,276.637994 3624.168456,269.789022 3607.315774,252.010822 3600.018736,258.859805"/>
    <poly id="348141687" type="building.yes" color="255,230,230" fill="1" layer="-1.00" shape="3562.795993,408.334890 3572.115921,413.337083 3576.272226,405.669984 3566.952293,400.667788 3562.795993,408.334890"/>
    <poly id="348141700" type="building.yes" color="255,230,230" fill="1" layer="-1.00" shape="3625.606308,331.769063 3635.403725,340.969635 3639.244217,336.911005 3629.446987,327.699347 3625.606308,331.769063"/>
    <poly id="348141712" type="building.yes" color="255,230,230" fill="1" layer="-1.00" shape="3928.450883,342.082776 3953.167303,323.646249 3945.454658,313.416597 3935.552107,320.808674 3937.822452,323.840248 3934.101606,326.614924 3931.850097,323.628011 3920.767050,331.886885 3928.450883,342.082776"/>
    <poly id="348141746" type="building.yes" color="255,230,230" fill="1" layer="-1.00" shape="3640.454302,336.610043 3650.033691,326.307909 3637.686580,314.946817 3628.107383,325.237878 3640.454302,336.610043"/>
    <poly id="348141754" type="building.yes" color="255,230,230" fill="1" layer="-1.00" shape="3883.930935,321.539864 3897.625575,340.074126 3905.412470,334.386504 3899.896311,326.921151 3897.545268,328.643812 3894.863938,325.006664 3896.917404,323.500658 3891.420258,316.068888 3883.930935,321.539864"/>
    <poly id="348141869" type="building.yes" color="255,230,230" fill="1" layer="-1.00" shape="3812.555074,461.710696 3824.367690,471.644011 3829.635774,465.436943 3817.822968,455.514705 3812.555074,461.710696"/>
    <poly id="348141875" type="building.yes" color="255,230,230" fill="1" layer="-1.00" shape="3954.133286,322.143961 3978.691017,303.826726 3971.265986,293.967755 3961.016290,301.608881 3962.923120,304.124364 3959.242002,306.866452 3957.038335,303.946859 3946.391824,311.880563 3954.133286,322.143961"/>
    <poly id="348141912" type="building.yes" color="255,230,230" fill="1" layer="-1.00" shape="3779.174455,417.468328 3766.753702,427.788678 3777.748528,440.889550 3790.169467,430.558129 3779.174455,417.468328"/>
    <poly id="348141948" type="building.yes" color="255,230,230" fill="1" layer="-1.00" shape="3626.152306,381.052423 3618.637101,393.262972 3636.381783,404.061510 3643.887396,391.839723 3626.152306,381.052423"/>
    <poly id="348141954" type="building.yes" color="255,230,230" fill="1" layer="-1.00" shape="3612.395591,244.193103 3625.050329,234.519501 3619.576533,227.431914 3606.911999,237.105356 3612.395591,244.193103"/>
    <poly id="348141976" type="building.yes" color="255,230,230" fill="1" layer="-1.00" shape="3788.306519,410.439962 3799.781627,424.103267 3804.968598,419.790398 3793.493491,406.127088 3788.306519,410.439962"/>
    <poly id="348141995" type="building.yes" color="255,230,230" fill="1" layer="-1.00" shape="3736.964732,307.495729 3753.743829,323.820714 3759.705227,317.747310 3742.925940,301.433399 3736.964732,307.495729"/>
    <poly id="348142012" type="building.yes" color="255,230,230" fill="1" layer="-1.00" shape="3536.259406,445.785857 3557.054695,458.088134 3569.223849,437.742217 3548.428721,425.428838 3536.259406,445.785857"/>
    <poly id="348142023" type="building.yes" color="255,230,230" fill="1" layer="-1.00" shape="3598.079023,313.776692 3611.489403,325.987157 3616.569680,320.453018 3603.169092,308.242714 3598.079023,313.776692"/>
    <poly id="348142030" type="building.yes" color="255,230,230" fill="1" layer="-1.00" shape="3598.042213,315.948785 3584.923715,329.871299 3598.020686,342.076439 3611.139188,328.153938 3598.042213,315.948785"/>
    <poly id="348142041" type="building.yes" color="255,230,230" fill="1" layer="-1.00" shape="3769.366529,319.950870 3789.378010,339.767179 3797.220718,331.940974 3777.209234,312.124651 3769.366529,319.950870"/>
    <poly id="348142055" type="building.yes" color="255,230,230" fill="1" layer="-1.00" shape="3651.704565,406.316602 3657.277688,400.025951 3647.952557,391.864292 3642.379436,398.154948 3651.704565,406.316602"/>
    <poly id="348142064" type="building.yes" color="255,230,230" fill="1" layer="-1.00" shape="3696.138503,399.576267 3683.452370,412.840889 3696.700585,425.359106 3709.376929,412.094332 3696.138503,399.576267"/>
    <poly id="348142070" type="building.yes" color="255,230,230" fill="1" layer="-1.00" shape="3581.964735,369.207176 3591.240846,375.062207 3598.537779,363.590657 3589.261473,357.746703 3581.964735,369.207176"/>
    <poly id="348142087" type="building.yes" color="255,230,230" fill="1" layer="-1.00" shape="3779.927111,471.854494 3787.618988,479.844454 3795.445424,472.394877 3787.753547,464.404912 3779.927111,471.854494"/>
    <poly id="348142092" type="building.yes" color="255,230,230" fill="1" layer="-1.00" shape="3570.760237,364.416919 3580.617007,370.115501 3587.901264,357.657141 3578.064074,351.958885 3570.760237,364.416919"/>
    <poly id="348142139" type="building.yes" color="255,230,230" fill="1" layer="-1.00" shape="3600.206320,270.336254 3603.907104,267.006873 3593.049276,255.050299 3589.348680,258.368601 3600.206320,270.336254"/>
    <poly id="348142143" type="building.apartments" color="255,230,230" fill="1" layer="-1.00" shape="3869.596669,82.630031 3874.871765,78.329762 3872.395113,75.327962 3874.223166,73.829210 3870.969181,69.871968 3873.273930,67.993319 3876.547315,71.961976 3877.819005,70.919366 3880.314868,73.943665 3886.652979,68.774615 3880.778441,61.635761 3878.811388,63.243006 3876.536272,60.488501 3878.185402,59.141908 3866.308688,61.623022 3865.096703,62.611219 3867.304391,65.298066 3863.082316,68.740467 3857.889040,62.444582 3861.216865,59.740806 3832.272606,58.263139 3836.832276,63.794462 3853.290933,62.643698 3849.545744,65.695124 3847.549008,63.277907 3840.525348,69.011781 3846.611236,76.398076 3853.138049,71.077017 3855.921910,74.449841 3849.365340,79.792564 3854.625854,86.167183 3861.709028,80.389986 3859.923630,78.220230 3862.655724,75.983015 3861.215765,74.240361 3864.593498,71.482007 3866.129329,73.348226 3863.625881,75.389785 3869.596669,82.630031"/>
    <poly id="348142147" type="building.yes" color="255,230,230" fill="1" layer="-1.00" shape="3987.045831,322.392376 3999.803676,313.585563 3997.374565,310.096783 3984.606924,318.903432 3987.045831,322.392376"/>
    <poly id="348142152" type="building.yes" color="255,230,230" fill="1" layer="-1.00" shape="3627.628644,232.102266 3642.268485,220.910386 3636.746850,213.755468 3622.107006,224.947356 3627.628644,232.102266"/>
    <poly id="348142157" type="building.yes" color="255,230,230" fill="1" layer="-1.00" shape="3580.058911,403.627948 3589.808287,409.302550 3592.612643,404.527975 3582.863076,398.864453 3580.058911,403.627948"/>
    <poly id="348142161" type="building.yes" color="255,230,230" fill="1" layer="-1.00" shape="3519.893652,436.862074 3533.077674,443.925051 3543.554232,424.603536 3530.370381,417.529467 3519.893652,436.862074"/>
    <poly id="348142176" type="building.yes" color="255,230,230" fill="1" layer="-1.00" shape="3544.801655,468.932551 3548.769532,471.227922 3554.298898,461.732839 3553.629330,461.355680 3550.330831,459.448548 3544.801655,468.932551"/>
    <poly id="348142182" type="building.yes" color="255,230,230" fill="1" layer="-1.00" shape="3555.756300,373.984252 3566.606961,379.998965 3573.728835,367.293969 3562.878164,361.279250 3555.756300,373.984252"/>
    <poly id="348142188" type="building.yes" color="255,230,230" fill="1" layer="-1.00" shape="3717.227975,378.350801 3728.510054,389.538734 3739.980206,378.082607 3728.698126,366.894663 3717.227975,378.350801"/>
    <poly id="348142211" type="building.yes" color="255,230,230" fill="1" layer="-1.00" shape="3584.768951,392.190152 3609.857256,406.682558 3617.485033,393.609260 3592.406500,379.117005 3584.768951,392.190152"/>
    <poly id="348142225" type="building.yes" color="255,230,230" fill="1" layer="-1.00" shape="3559.430666,462.983748 3574.827890,475.294361 3579.380546,469.673673 3563.983506,457.351972 3559.430666,462.983748"/>
    <poly id="348142233" type="building.yes" color="255,230,230" fill="1" layer="-1.00" shape="3569.767938,347.240085 3562.690838,359.036849 3570.004180,363.362091 3577.071304,351.576248 3569.767938,347.240085"/>
    <poly id="348142252" type="building.yes" color="255,230,230" fill="1" layer="-1.00" shape="3969.380474,372.131534 3986.533082,391.822075 3997.419860,382.429228 3980.267254,362.738671 3969.380474,372.131534"/>