<?xml version="1.0" encoding="UTF-8"?>

<!-- generated on 2025-03-21 11:49:29.852611 by osmWebWizard.py v1_22_0+0002-63e50f52594
<configuration>
    <net-file value="C:\Users\sai\OneDrive\Documents\TLO\2025-03-21-11-48-15\osm.net.xml.gz"/>
    <output-trip-file value="C:\Users\sai\OneDrive\Documents\TLO\2025-03-21-11-48-15\osm.passenger.trips.xml"/>
    <route-file value="C:\Users\sai\OneDrive\Documents\TLO\2025-03-21-11-48-15\osm.passenger.rou.xml"/>
    <prefix value="veh"/>
    <trip-attributes value="departLane=&quot;best&quot;"/>
    <fringe-start-attributes value="departSpeed=&quot;max&quot;"/>
    <vehicle-class value="passenger"/>
    <lanes value="True"/>
    <fringe-factor value="5"/>
    <allow-fringe.min-length value="1000.0"/>
    <via-edge-types value="highway.motorway,highway.motorway_link,highway.trunk_link,highway.primary_link,highway.secondary_link,highway.tertiary_link"/>
    <min-distance value="300.0"/>
    <min-distance.fringe value="10.0"/>
    <remove-loops value="True"/>
    <validate value="True"/>
    <insertion-density value="12.0"/>
</configuration>
-->

<!-- generated on 2025-03-21 11:49:08 by Eclipse SUMO duarouter Version 1.22.0
<duarouterConfiguration xmlns:xsi="http://www.w3.org/2001/XMLSchema-instance" xsi:noNamespaceSchemaLocation="http://sumo.dlr.de/xsd/duarouterConfiguration.xsd">

    <input>
        <net-file value="C:\Users\sai\OneDrive\Documents\TLO\2025-03-21-11-48-15\osm.net.xml.gz"/>
        <route-files value="C:\Users\sai\OneDrive\Documents\TLO\2025-03-21-11-48-15\osm.passenger.trips.xml"/>
    </input>

    <output>
        <output-file value="C:\Users\sai\OneDrive\Documents\TLO\2025-03-21-11-48-15\osm.passenger.trips.xml.tmp"/>
        <alternatives-output value="NUL"/>
        <write-trips value="true"/>
    </output>

    <processing>
        <remove-loops value="true"/>
    </processing>

    <time>
        <begin value="0.0"/>
        <end value="3600.0"/>
    </time>

    <report>
        <no-warnings value="true"/>
        <ignore-errors value="true"/>
        <no-step-log value="true"/>
    </report>

</duarouterConfiguration>
-->

<routes xmlns:xsi="http://www.w3.org/2001/XMLSchema-instance" xsi:noNamespaceSchemaLocation="http://sumo.dlr.de/xsd/routes_file.xsd">
    <vType id="veh_passenger" vClass="passenger"/>
    <trip id="veh0" type="veh_passenger" depart="0.00" departLane="best" from="190021160#7" to="-1237259548#0"/>
    <trip id="veh1" type="veh_passenger" depart="0.75" departLane="best" from="-212744275#4" to="-212744347#7"/>
    <trip id="veh2" type="veh_passenger" depart="1.49" departLane="best" from="212682336#0" to="212682336#6"/>
    <trip id="veh3" type="veh_passenger" depart="2.24" departLane="best" from="35375712#0" to="-189088226#1"/>
    <trip id="veh4" type="veh_passenger" depart="2.98" departLane="best" from="-412673838#2" to="-1239873647"/>
    <trip id="veh5" type="veh_passenger" depart="3.73" departLane="best" from="-212682304#3" to="141596943#0"/>
    <trip id="veh6" type="veh_passenger" depart="4.47" departLane="best" from="-1184981454#1" to="-212743923#0"/>
    <trip id="veh7" type="veh_passenger" depart="5.22" departLane="best" from="190041742#0" to="189074956#1"/>
    <trip id="veh8" type="veh_passenger" depart="5.96" departLane="best" from="-212682316#2" to="212681365#4"/>
    <trip id="veh9" type="veh_passenger" depart="6.71" departLane="best" from="-213173982#2" to="-1081792722"/>
    <trip id="veh10" type="veh_passenger" depart="7.45" departLane="best" from="213173950" to="212743882"/>
    <trip id="veh11" type="veh_passenger" depart="8.20" departLane="best" from="213174171#9" to="-212682058#0"/>
    <trip id="veh12" type="veh_passenger" depart="8.94" departLane="best" from="421054386#15" to="-413571900#1"/>
    <trip id="veh13" type="veh_passenger" depart="9.69" departLane="best" from="-189074506#1" to="-190041537"/>
    <trip id="veh14" type="veh_passenger" depart="10.44" departLane="best" from="213174582#16" to="212681457#10"/>
    <trip id="veh15" type="veh_passenger" depart="11.18" departLane="best" departSpeed="max" from="213173971#0" to="212744275#7"/>
    <trip id="veh16" type="veh_passenger" depart="11.93" departLane="best" from="-1085011040" to="764399429#0"/>
    <trip id="veh18" type="veh_passenger" depart="13.42" departLane="best" from="213174281#0" to="212681671#4"/>
    <trip id="veh19" type="veh_passenger" depart="14.16" departLane="best" departSpeed="max" from="213174880#0" to="190041749#1"/>
    <trip id="veh20" type="veh_passenger" depart="14.91" departLane="best" from="212681945#1" to="-1368223347"/>
    <trip id="veh21" type="veh_passenger" depart="15.65" departLane="best" from="-212743803#2" to="213174582#10"/>
    <trip id="veh22" type="veh_passenger" depart="16.40" departLane="best" from="-141596951#2" to="-212744488#0"/>
    <trip id="veh23" type="veh_passenger" depart="17.14" departLane="best" from="189074836#3" to="-213174352#1"/>
    <trip id="veh24" type="veh_passenger" depart="17.89" departLane="best" from="190021107#1" to="-420782864"/>
    <trip id="veh25" type="veh_passenger" depart="18.63" departLane="best" departSpeed="max" from="-213174558" to="-212744129#0"/>
    <trip id="veh26" type="veh_passenger" depart="19.38" departLane="best" from="-212744162#1" to="-420988304#1"/>
    <trip id="veh27" type="veh_passenger" depart="20.13" departLane="best" from="190041698#1" to="212681531#1"/>
    <trip id="veh28" type="veh_passenger" depart="20.87" departLane="best" from="-212681763#8" to="212744263"/>
    <trip id="veh29" type="veh_passenger" depart="21.62" departLane="best" departSpeed="max" from="-212681631" to="-421005815#1"/>
    <trip id="veh30" type="veh_passenger" depart="22.36" departLane="best" from="795186519#4" to="212681976"/>
    <trip id="veh31" type="veh_passenger" depart="23.11" departLane="best" from="1239863239" to="212743818#2"/>
    <trip id="veh32" type="veh_passenger" depart="23.85" departLane="best" from="213174525" to="213173998#1"/>
    <trip id="veh33" type="veh_passenger" depart="24.60" departLane="best" from="-212743805#3" to="-1240082078"/>
    <trip id="veh34" type="veh_passenger" depart="25.34" departLane="best" from="-212682226#4" to="421000305"/>
    <trip id="veh35" type="veh_passenger" depart="26.09" departLane="best" from="35330735#2" to="-35330746#6"/>
    <trip id="veh36" type="veh_passenger" depart="26.83" departLane="best" from="190044996#15" to="-649218917"/>
    <trip id="veh37" type="veh_passenger" depart="27.58" departLane="best" departSpeed="max" from="420527763#0" to="1209684547#11"/>
    <trip id="veh38" type="veh_passenger" depart="28.32" departLane="best" departSpeed="max" from="-212744141" to="-212744584#0"/>
    <trip id="veh39" type="veh_passenger" depart="29.07" departLane="best" departSpeed="max" from="1240085026" to="-213174147#2"/>
    <trip id="veh40" type="veh_passenger" depart="29.81" departLane="best" from="141596955#2" to="420464747#2"/>
    <trip id="veh41" type="veh_passenger" depart="30.56" departLane="best" from="-35330746#4" to="-212744305#1"/>
    <trip id="veh42" type="veh_passenger" depart="31.31" departLane="best" from="-87497496#7" to="141596952#11"/>
    <trip id="veh43" type="veh_passenger" depart="32.05" departLane="best" from="189074411#1" to="-141596946#3"/>
    <trip id="veh44" type="veh_passenger" depart="32.80" departLane="best" from="-189088140#0" to="212681794"/>
    <trip id="veh45" type="veh_passenger" depart="33.54" departLane="best" from="212744519#2" to="1075051307#0"/>
    <trip id="veh46" type="veh_passenger" depart="34.29" departLane="best" departSpeed="max" from="-1240656286" to="-421037403#3"/>
    <trip id="veh47" type="veh_passenger" depart="35.03" departLane="best" from="805980095#0" to="189074514#1"/>
    <trip id="veh48" type="veh_passenger" depart="35.78" departLane="best" from="648541400#8" to="35330643#6"/>
    <trip id="veh49" type="veh_passenger" depart="36.52" departLane="best" from="-1081687453" to="212744155#1"/>
    <trip id="veh50" type="veh_passenger" depart="37.27" departLane="best" from="212681473#1" to="189074830#2"/>
    <trip id="veh51" type="veh_passenger" depart="38.01" departLane="best" from="-212744161" to="212681983#3"/>
    <trip id="veh53" type="veh_passenger" depart="39.50" departLane="best" from="-420696859#5" to="24496693#1"/>
    <trip id="veh54" type="veh_passenger" depart="40.25" departLane="best" from="35330733#5" to="-213174150#0"/>
    <trip id="veh55" type="veh_passenger" depart="41.00" departLane="best" departSpeed="max" from="-788777043#1" to="-212682326#3"/>
    <trip id="veh56" type="veh_passenger" depart="41.74" departLane="best" departSpeed="max" from="420521386#0" to="35330929#6"/>
    <trip id="veh57" type="veh_passenger" depart="42.49" departLane="best" from="212744525#1" to="212681966#5"/>
    <trip id="veh58" type="veh_passenger" depart="43.23" departLane="best" from="189074714#1" to="-212681997#2"/>
    <trip id="veh59" type="veh_passenger" depart="43.98" departLane="best" from="212744100#5" to="189074849#9"/>
    <trip id="veh60" type="veh_passenger" depart="44.72" departLane="best" from="212744345#1" to="-189074610#0"/>
    <trip id="veh61" type="veh_passenger" depart="45.47" departLane="best" departSpeed="max" from="-1034737925" to="-35375650#9"/>
    <trip id="veh62" type="veh_passenger" depart="46.21" departLane="best" from="-1082234770" to="420779515#13"/>
    <trip id="veh63" type="veh_passenger" depart="46.96" departLane="best" from="35330757#10" to="213174627#0"/>
    <trip id="veh64" type="veh_passenger" depart="47.70" departLane="best" from="-212744562#3" to="189074185#9"/>
    <trip id="veh65" type="veh_passenger" depart="48.45" departLane="best" from="-35330746#4" to="421005815#2"/>
    <trip id="veh66" type="veh_passenger" depart="49.19" departLane="best" from="-141597070#10" to="1240389241"/>
    <trip id="veh67" type="veh_passenger" depart="49.94" departLane="best" departSpeed="max" from="-1311494166" to="212744556"/>
    <trip id="veh68" type="veh_passenger" depart="50.69" departLane="best" from="-212744138#1" to="-212681532"/>
    <trip id="veh69" type="veh_passenger" depart="51.43" departLane="best" from="-421000193#14" to="189088168#1"/>
    <trip id="veh70" type="veh_passenger" depart="52.18" departLane="best" departSpeed="max" from="-212744141" to="35330985#3"/>
    <trip id="veh71" type="veh_passenger" depart="52.92" departLane="best" from="-412707655#1" to="-212744167#2"/>
    <trip id="veh72" type="veh_passenger" depart="53.67" departLane="best" from="1124149620#3" to="212744275#9"/>
    <trip id="veh73" type="veh_passenger" depart="54.41" departLane="best" from="-212682133" to="-35330643#5"/>
    <trip id="veh74" type="veh_passenger" depart="55.16" departLane="best" departSpeed="max" from="805980083" to="212682076#5"/>
    <trip id="veh75" type="veh_passenger" depart="55.90" departLane="best" from="-420512884#2" to="189074095#12"/>
    <trip id="veh76" type="veh_passenger" depart="56.65" departLane="best" from="-190021144#6" to="-212744365#0"/>
    <trip id="veh77" type="veh_passenger" depart="57.39" departLane="best" departSpeed="max" from="-213174165#1" to="212681365#11"/>
    <trip id="veh78" type="veh_passenger" depart="58.14" departLane="best" from="-212743807#3" to="-212744321#0"/>
    <trip id="veh79" type="veh_passenger" depart="58.88" departLane="best" departSpeed="max" from="-1311756392#1" to="212681845#0"/>
    <trip id="veh80" type="veh_passenger" depart="59.63" departLane="best" from="212743805#2" to="420511254#2"/>
    <trip id="veh81" type="veh_passenger" depart="60.38" departLane="best" from="189074891#9" to="-189074797#0"/>
    <trip id="veh82" type="veh_passenger" depart="61.12" departLane="best" from="-212743836#13" to="212682287#6"/>
    <trip id="veh83" type="veh_passenger" depart="61.87" departLane="best" from="-212682272#3" to="-212681650#1"/>
    <trip id="veh84" type="veh_passenger" depart="62.61" departLane="best" from="420988297#1" to="190041635#0"/>
    <trip id="veh85" type="veh_passenger" depart="63.36" departLane="best" from="212744128#0" to="213174077"/>
    <trip id="veh86" type="veh_passenger" depart="64.10" departLane="best" from="213173971#4" to="-212743829#18"/>
    <trip id="veh87" type="veh_passenger" depart="64.85" departLane="best" from="-189074737#1" to="1081687453"/>
    <trip id="veh88" type="veh_passenger" depart="65.59" departLane="best" departSpeed="max" from="-412707655#3" to="1239851029"/>
    <trip id="veh89" type="veh_passenger" depart="66.34" departLane="best" departSpeed="max" from="792444945" to="-190041648#0"/>
    <trip id="veh90" type="veh_passenger" depart="67.08" departLane="best" from="-35330767#1" to="-420463485#1"/>
    <trip id="veh91" type="veh_passenger" depart="67.83" departLane="best" departSpeed="max" from="213174880#0" to="-213173942"/>
    <trip id="veh92" type="veh_passenger" depart="68.57" departLane="best" from="212681994#3" to="1184981456"/>
    <trip id="veh93" type="veh_passenger" depart="69.32" departLane="best" from="-412673838#2" to="-213174373#0"/>
    <trip id="veh94" type="veh_passenger" depart="70.06" departLane="best" from="212743961" to="-420742682#6"/>
    <trip id="veh95" type="veh_passenger" depart="70.81" departLane="best" departSpeed="max" from="-420527755" to="35330733#4"/>
    <trip id="veh96" type="veh_passenger" depart="71.56" departLane="best" departSpeed="max" from="1212933208" to="-141596952#7"/>
    <trip id="veh97" type="veh_passenger" depart="72.30" departLane="best" from="995275112#1-AddedOnRampEdge" to="213174689"/>
    <trip id="veh98" type="veh_passenger" depart="73.05" departLane="best" from="648535181#1" to="420751856"/>
    <trip id="veh99" type="veh_passenger" depart="73.79" departLane="best" from="213174594" to="-212682194#3"/>
    <trip id="veh100" type="veh_passenger" depart="74.54" departLane="best" from="421037424#2" to="-212744208"/>
    <trip id="veh101" type="veh_passenger" depart="75.28" departLane="best" from="35330761#0" to="-189074258"/>
    <trip id="veh102" type="veh_passenger" depart="76.03" departLane="best" from="-213174688#1" to="793784764#1"/>
    <trip id="veh103" type="veh_passenger" depart="76.77" departLane="best" departSpeed="max" from="-212744141" to="213174073"/>
    <trip id="veh104" type="veh_passenger" depart="77.52" departLane="best" from="421054386#3" to="805980093"/>
    <trip id="veh105" type="veh_passenger" depart="78.26" departLane="best" from="1239844578#0" to="212744132"/>
    <trip id="veh106" type="veh_passenger" depart="79.01" departLane="best" departSpeed="max" from="-212681505" to="-213174710#0"/>
    <trip id="veh107" type="veh_passenger" depart="79.75" departLane="best" from="648527031#2" to="190044995#1"/>
    <trip id="veh108" type="veh_passenger" depart="80.50" departLane="best" from="1185026549#1" to="212744472"/>
    <trip id="veh109" type="veh_passenger" depart="81.25" departLane="best" from="-1240372643" to="190044996#6"/>
    <trip id="veh110" type="veh_passenger" depart="81.99" departLane="best" departSpeed="max" from="-791682921" to="24501913#5"/>
    <trip id="veh111" type="veh_passenger" depart="82.74" departLane="best" departSpeed="max" from="-212681538" to="422380348"/>
    <trip id="veh112" type="veh_passenger" depart="83.48" departLane="best" from="-141596951#6" to="-212743807#5"/>
    <trip id="veh113" type="veh_passenger" depart="84.23" departLane="best" from="189074185#4" to="212682331#2"/>
    <trip id="veh114" type="veh_passenger" depart="84.97" departLane="best" from="212743829#22" to="212681441#2"/>
    <trip id="veh115" type="veh_passenger" depart="85.72" departLane="best" from="-35375655#5" to="212744579#1"/>
    <trip id="veh116" type="veh_passenger" depart="86.46" departLane="best" from="189074163#8" to="212681681#1"/>
    <trip id="veh117" type="veh_passenger" depart="87.21" departLane="best" departSpeed="max" from="-412334555" to="190044996#3"/>
    <trip id="veh118" type="veh_passenger" depart="87.95" departLane="best" from="1053530941#2" to="420988300#20"/>
    <trip id="veh119" type="veh_passenger" depart="88.70" departLane="best" departSpeed="max" from="-212682163" to="212744117#1"/>
    <trip id="veh120" type="veh_passenger" depart="89.44" departLane="best" from="-212743836#7" to="651874734"/>
    <trip id="veh121" type="veh_passenger" depart="90.19" departLane="best" from="212681411#9" to="-213174785#0"/>
    <trip id="veh122" type="veh_passenger" depart="90.94" departLane="best" departSpeed="max" from="-213173969" to="212744517#0"/>
    <trip id="veh123" type="veh_passenger" depart="91.68" departLane="best" departSpeed="max" from="944915465#0" to="87497494#1"/>
    <trip id="veh124" type="veh_passenger" depart="92.43" departLane="best" departSpeed="max" from="-1311769188" to="-212744192#1"/>
    <trip id="veh125" type="veh_passenger" depart="93.17" departLane="best" departSpeed="max" from="-212744141" to="420988296#1"/>
    <trip id="veh126" type="veh_passenger" depart="93.92" departLane="best" from="35330766#1" to="35375757#0"/>
    <trip id="veh127" type="veh_passenger" depart="94.66" departLane="best" from="-213174550#2" to="-212682084"/>
    <trip id="veh128" type="veh_passenger" depart="95.41" departLane="best" from="-213174330#1" to="-212743961"/>
    <trip id="veh129" type="veh_passenger" depart="96.15" departLane="best" from="189074802#1" to="795186519#15"/>
    <trip id="veh130" type="veh_passenger" depart="96.90" departLane="best" from="190044995#9" to="-1082226184#0"/>
    <trip id="veh131" type="veh_passenger" depart="97.64" departLane="best" departSpeed="max" from="213174102#0" to="-213174764#1"/>
    <trip id="veh132" type="veh_passenger" depart="98.39" departLane="best" departSpeed="max" from="190045081" to="420993928"/>
    <trip id="veh133" type="veh_passenger" depart="99.13" departLane="best" from="-190045041#0" to="-212681414#0"/>
    <trip id="veh134" type="veh_passenger" depart="99.88" departLane="best" from="-189088025#5" to="189088224#2"/>
    <trip id="veh135" type="veh_passenger" depart="100.63" departLane="best" from="212744238#6" to="212681457#9"/>
    <trip id="veh136" type="veh_passenger" depart="101.37" departLane="best" from="212682134#0" to="-212744071"/>
    <trip id="veh137" type="veh_passenger" depart="102.12" departLane="best" from="190021101#2" to="213174155#11"/>
    <trip id="veh138" type="veh_passenger" depart="102.86" departLane="best" from="-421045965" to="420511254#2"/>
    <trip id="veh139" type="veh_passenger" depart="103.61" departLane="best" departSpeed="max" from="213174570#0" to="-190021128#2"/>
    <trip id="veh140" type="veh_passenger" depart="104.35" departLane="best" departSpeed="max" from="-412707655#3" to="213174330#2"/>
    <trip id="veh141" type="veh_passenger" depart="105.10" departLane="best" from="-1081367600" to="213173969"/>
    <trip id="veh142" type="veh_passenger" depart="105.84" departLane="best" from="190021132#0" to="213174242#3"/>
    <trip id="veh144" type="veh_passenger" depart="107.33" departLane="best" from="-413571896#3" to="1082240964"/>
    <trip id="veh145" type="veh_passenger" depart="108.08" departLane="best" departSpeed="max" from="-1312224129" to="411601829"/>
    <trip id="veh146" type="veh_passenger" depart="108.82" departLane="best" departSpeed="max" from="420451220#0" to="189088017#1"/>
    <trip id="veh147" type="veh_passenger" depart="109.57" departLane="best" departSpeed="max" from="213174351#0" to="190044996#16"/>
    <trip id="veh150" type="veh_passenger" depart="111.81" departLane="best" from="212744543#2" to="-35330643#5"/>
    <trip id="veh151" type="veh_passenger" depart="112.55" departLane="best" from="412673846#1" to="212744144#3"/>
    <trip id="veh152" type="veh_passenger" depart="113.30" departLane="best" from="-212743936" to="190041758#0"/>
    <trip id="veh153" type="veh_passenger" depart="114.04" departLane="best" from="-212744352#2" to="411648570#1"/>
    <trip id="veh154" type="veh_passenger" depart="114.79" departLane="best" from="35331002#10" to="212681700"/>
    <trip id="veh155" type="veh_passenger" depart="115.53" departLane="best" from="212681496#2" to="420779515#6"/>
    <trip id="veh156" type="veh_passenger" depart="116.28" departLane="best" from="24501897#8" to="791682922#1"/>
    <trip id="veh157" type="veh_passenger" depart="117.02" departLane="best" from="213173996#3" to="411583320#16"/>
    <trip id="veh158" type="veh_passenger" depart="117.77" departLane="best" departSpeed="max" from="-1130591034" to="212744345#0"/>
    <trip id="veh159" type="veh_passenger" depart="118.51" departLane="best" from="-213174116#3" to="-420988282"/>
    <trip id="veh160" type="veh_passenger" depart="119.26" departLane="best" from="213173996#3" to="213174171#12"/>
    <trip id="veh161" type="veh_passenger" depart="120.00" departLane="best" from="212744466#1" to="-190045071#5"/>
    <trip id="veh162" type="veh_passenger" depart="120.75" departLane="best" from="289778377#5" to="30443392#2"/>
    <trip id="veh163" type="veh_passenger" depart="121.50" departLane="best" from="-212682331#3" to="213174422#0"/>
    <trip id="veh164" type="veh_passenger" depart="122.24" departLane="best" departSpeed="max" from="-420751858" to="-213174880#2"/>
    <trip id="veh165" type="veh_passenger" depart="122.99" departLane="best" from="212744537#1" to="-212744424#0"/>
    <trip id="veh166" type="veh_passenger" depart="123.73" departLane="best" departSpeed="max" from="-1118274173" to="-212743836#14"/>
    <trip id="veh167" type="veh_passenger" depart="124.48" departLane="best" departSpeed="max" from="-213174073" to="35330757#11"/>
    <trip id="veh168" type="veh_passenger" depart="125.22" departLane="best" from="648521331#4" to="-213174373#3"/>
    <trip id="veh169" type="veh_passenger" depart="125.97" departLane="best" from="-190041507#3" to="-791664982#3"/>
    <trip id="veh170" type="veh_passenger" depart="126.71" departLane="best" from="792058827" to="189074826#1"/>
    <trip id="veh171" type="veh_passenger" depart="127.46" departLane="best" from="420988306#1" to="-212681411#9"/>
    <trip id="veh172" type="veh_passenger" depart="128.20" departLane="best" from="648541400#4" to="-212682326#2"/>
    <trip id="veh173" type="veh_passenger" depart="128.95" departLane="best" departSpeed="max" from="642941241#0" to="-213174165#0"/>
    <trip id="veh174" type="veh_passenger" depart="129.69" departLane="best" departSpeed="max" from="-189088059" to="1081976731"/>
    <trip id="veh175" type="veh_passenger" depart="130.44" departLane="best" from="212682268#0" to="-35330736#8"/>
    <trip id="veh176" type="veh_passenger" depart="131.19" departLane="best" from="189074604#1" to="141596955#3"/>
    <trip id="veh177" type="veh_passenger" depart="131.93" departLane="best" departSpeed="max" from="-213174785#1" to="190041744#3"/>
    <trip id="veh178" type="veh_passenger" depart="132.68" departLane="best" departSpeed="max" from="-212744035#1" to="212744039"/>
    <trip id="veh179" type="veh_passenger" depart="133.42" departLane="best" from="-1067482166#0" to="420747928#6"/>
    <trip id="veh180" type="veh_passenger" depart="134.17" departLane="best" from="1111418202#3" to="212744141"/>
    <trip id="veh181" type="veh_passenger" depart="134.91" departLane="best" from="212743812#2" to="212682299#2"/>
    <trip id="veh182" type="veh_passenger" depart="135.66" departLane="best" departSpeed="max" from="-213174487#1" to="-189074762#2"/>
    <trip id="veh183" type="veh_passenger" depart="136.40" departLane="best" from="212681365#11" to="-411601844#0"/>
    <trip id="veh184" type="veh_passenger" depart="137.15" departLane="best" departSpeed="max" from="-213173944" to="213174859#0"/>
    <trip id="veh185" type="veh_passenger" depart="137.89" departLane="best" from="212682162#0" to="-213174787#3"/>
    <trip id="veh186" type="veh_passenger" depart="138.64" departLane="best" from="-212744571#4" to="-792444957#2"/>
    <trip id="veh187" type="veh_passenger" depart="139.38" departLane="best" from="-421000193#12" to="-213174700#1"/>
    <trip id="veh188" type="veh_passenger" depart="140.13" departLane="best" from="-190041687#0" to="1063531102#2"/>
    <trip id="veh189" type="veh_passenger" depart="140.88" departLane="best" from="-412707658#0" to="212743792#1"/>
    <trip id="veh191" type="veh_passenger" depart="142.37" departLane="best" departSpeed="max" from="-1013675435#1" to="-213174550#0"/>
    <trip id="veh192" type="veh_passenger" depart="143.11" departLane="best" departSpeed="max" from="-420463489#2" to="141596847#2"/>
    <trip id="veh193" type="veh_passenger" depart="143.86" departLane="best" from="190044996#11" to="1238230313"/>
    <trip id="veh194" type="veh_passenger" depart="144.60" departLane="best" departSpeed="max" from="-420521386#3" to="-212744208"/>
    <trip id="veh195" type="veh_passenger" depart="145.35" departLane="best" from="-420997082#1" to="420495051"/>
    <trip id="veh196" type="veh_passenger" depart="146.09" departLane="best" from="212744543#1" to="-212682226#4"/>
    <trip id="veh197" type="veh_passenger" depart="146.84" departLane="best" from="190021015" to="-413544888#0"/>
    <trip id="veh198" type="veh_passenger" depart="147.58" departLane="best" from="213174119#0" to="212744513#1"/>
    <trip id="veh199" type="veh_passenger" depart="148.33" departLane="best" from="212681425#0" to="-212744365#0"/>
    <trip id="veh200" type="veh_passenger" depart="149.07" departLane="best" from="-212682110#0" to="-1237153777"/>
    <trip id="veh201" type="veh_passenger" depart="149.82" departLane="best" from="-212743885#0" to="1240097945"/>
    <trip id="veh202" type="veh_passenger" depart="150.57" departLane="best" departSpeed="max" from="213174651#0" to="-189074830#1"/>
    <trip id="veh203" type="veh_passenger" depart="151.31" departLane="best" from="-411583320#15" to="212681824"/>
    <trip id="veh204" type="veh_passenger" depart="152.06" departLane="best" departSpeed="max" from="-212682042" to="212743864"/>
    <trip id="veh205" type="veh_passenger" depart="152.80" departLane="best" from="-422347311#0" to="-212744568#1"/>
    <trip id="veh206" type="veh_passenger" depart="153.55" departLane="best" from="190044996#18" to="-1081736167"/>
    <trip id="veh207" type="veh_passenger" depart="154.29" departLane="best" from="212743839#5" to="213173957#0"/>
    <trip id="veh208" type="veh_passenger" depart="155.04" departLane="best" departSpeed="max" from="-189074959#1" to="1081671627"/>
    <trip id="veh209" type="veh_passenger" depart="155.78" departLane="best" from="-212681808#0" to="421054386#13"/>
    <trip id="veh210" type="veh_passenger" depart="156.53" departLane="best" departSpeed="max" from="-805980091" to="-141596952#3"/>
    <trip id="veh211" type="veh_passenger" depart="157.27" departLane="best" departSpeed="max" from="-212743934" to="213174880#3"/>
    <trip id="veh212" type="veh_passenger" depart="158.02" departLane="best" from="-420742682#4" to="213174242#1"/>
    <trip id="veh213" type="veh_passenger" depart="158.76" departLane="best" from="212681380#5" to="795186519#2"/>
    <trip id="veh214" type="veh_passenger" depart="159.51" departLane="best" from="-189074185#8" to="421037403#2"/>
    <trip id="veh215" type="veh_passenger" depart="160.25" departLane="best" from="35375656#9" to="212681569"/>
    <trip id="veh216" type="veh_passenger" depart="161.00" departLane="best" from="212682156#3" to="141596847#5"/>
    <trip id="veh217" type="veh_passenger" depart="161.75" departLane="best" from="213174295#1" to="-189088071#1"/>
    <trip id="veh218" type="veh_passenger" depart="162.49" departLane="best" from="412602552#1" to="212744429#3"/>
    <trip id="veh219" type="veh_passenger" depart="163.24" departLane="best" from="-420998442#3" to="-213174086#0"/>
    <trip id="veh220" type="veh_passenger" depart="163.98" departLane="best" from="-212743916" to="212681946"/>
    <trip id="veh221" type="veh_passenger" depart="164.73" departLane="best" from="-212744138#1" to="189074163#8"/>
    <trip id="veh222" type="veh_passenger" depart="165.47" departLane="best" from="189088158" to="-213174301#1"/>
    <trip id="veh223" type="veh_passenger" depart="166.22" departLane="best" from="-141596946#1" to="-213174538#0"/>
    <trip id="veh224" type="veh_passenger" depart="166.96" departLane="best" from="-212744235#1" to="-35330953#3"/>
    <trip id="veh225" type="veh_passenger" depart="167.71" departLane="best" from="1136383486" to="-212681772#26"/>
    <trip id="veh226" type="veh_passenger" depart="168.45" departLane="best" from="-212743814#6" to="212743842#3"/>
    <trip id="veh227" type="veh_passenger" depart="169.20" departLane="best" from="212681983#1" to="-189074494#0"/>
    <trip id="veh228" type="veh_passenger" depart="169.94" departLane="best" from="-35331002#6" to="189074891#7"/>
    <trip id="veh229" type="veh_passenger" depart="170.69" departLane="best" departSpeed="max" from="-411601823#3" to="212744102#2"/>
    <trip id="veh230" type="veh_passenger" depart="171.44" departLane="best" departSpeed="max" from="-412401872" to="420510753"/>
    <trip id="veh231" type="veh_passenger" depart="172.18" departLane="best" from="141596954#5" to="212743846#1"/>
    <trip id="veh232" type="veh_passenger" depart="172.93" departLane="best" departSpeed="max" from="213174764#0" to="212744577#2"/>
    <trip id="veh233" type="veh_passenger" depart="173.67" departLane="best" from="-213174695#5" to="-1081736167"/>
    <trip id="veh234" type="veh_passenger" depart="174.42" departLane="best" departSpeed="max" from="-213174287" to="212744525#0"/>
    <trip id="veh235" type="veh_passenger" depart="175.16" departLane="best" from="213174700#3" to="421037425#4"/>
    <trip id="veh236" type="veh_passenger" depart="175.91" departLane="best" departSpeed="max" from="-412334555" to="212744471#1"/>
    <trip id="veh237" type="veh_passenger" depart="176.65" departLane="best" from="1197002267#2" to="212681455#2"/>