<additional>

    <tlLogic id="10005885391" type="static" programID="1" offset="0">
        <phase duration="30" state="GrGr" />
        <phase duration="3" state="yryr" />
        <phase duration="30" state="rGrG" />
        <phase duration="3" state="ryry" />
    </tlLogic>
    
    <tlLogic id="10079248789" type="static" programID="1" offset="0">
        <phase duration="30" state="GrGr" />
        <phase duration="3" state="yryr" />
        <phase duration="30" state="rGrG" />
        <phase duration="3" state="ryry" />
    </tlLogic>
    
    <tlLogic id="10079248790" type="static" programID="1" offset="0">
        <phase duration="30" state="GrGr" />
        <phase duration="3" state="yryr" />
        <phase duration="30" state="rGrG" />
        <phase duration="3" state="ryry" />
    </tlLogic>
    
    <tlLogic id="10079248791" type="static" programID="1" offset="0">
        <phase duration="30" state="GrGr" />
        <phase duration="3" state="yryr" />
        <phase duration="30" state="rGrG" />
        <phase duration="3" state="ryry" />
    </tlLogic>
    
    <tlLogic id="10079248792" type="static" programID="1" offset="0">
        <phase duration="30" state="GrGr" />
        <phase duration="3" state="yryr" />
        <phase duration="30" state="rGrG" />
        <phase duration="3" state="ryry" />
    </tlLogic>
    
    <tlLogic id="10083022400" type="static" programID="1" offset="0">
        <phase duration="30" state="GrGr" />
        <phase duration="3" state="yryr" />
        <phase duration="30" state="rGrG" />
        <phase duration="3" state="ryry" />
    </tlLogic>
    
    <tlLogic id="10118201978" type="static" programID="1" offset="0">
        <phase duration="30" state="GrGr" />
        <phase duration="3" state="yryr" />
        <phase duration="30" state="rGrG" />
        <phase duration="3" state="ryry" />
    </tlLogic>
    
    <tlLogic id="10170997534" type="static" programID="1" offset="0">
        <phase duration="30" state="GrGr" />
        <phase duration="3" state="yryr" />
        <phase duration="30" state="rGrG" />
        <phase duration="3" state="ryry" />
    </tlLogic>
    
    <tlLogic id="1017810916" type="static" programID="1" offset="0">
        <phase duration="30" state="GrGr" />
        <phase duration="3" state="yryr" />
        <phase duration="30" state="rGrG" />
        <phase duration="3" state="ryry" />
    </tlLogic>
    
    <tlLogic id="1017810929" type="static" programID="1" offset="0">
        <phase duration="30" state="GrGr" />
        <phase duration="3" state="yryr" />
        <phase duration="30" state="rGrG" />
        <phase duration="3" state="ryry" />
    </tlLogic>
    
    <tlLogic id="1017810953" type="static" programID="1" offset="0">
        <phase duration="30" state="GrGr" />
        <phase duration="3" state="yryr" />
        <phase duration="30" state="rGrG" />
        <phase duration="3" state="ryry" />
    </tlLogic>
    
    <tlLogic id="10185798546" type="static" programID="1" offset="0">
        <phase duration="30" state="GrGr" />
        <phase duration="3" state="yryr" />
        <phase duration="30" state="rGrG" />
        <phase duration="3" state="ryry" />
    </tlLogic>
    
    <tlLogic id="10211306358" type="static" programID="1" offset="0">
        <phase duration="30" state="GrGr" />
        <phase duration="3" state="yryr" />
        <phase duration="30" state="rGrG" />
        <phase duration="3" state="ryry" />
    </tlLogic>
    
    <tlLogic id="10227732425" type="static" programID="1" offset="0">
        <phase duration="30" state="GrGr" />
        <phase duration="3" state="yryr" />
        <phase duration="30" state="rGrG" />
        <phase duration="3" state="ryry" />
    </tlLogic>
    
    <tlLogic id="10227732427" type="static" programID="1" offset="0">
        <phase duration="30" state="GrGr" />
        <phase duration="3" state="yryr" />
        <phase duration="30" state="rGrG" />
        <phase duration="3" state="ryry" />
    </tlLogic>
    
    <tlLogic id="10241773435" type="static" programID="1" offset="0">
        <phase duration="30" state="GrGr" />
        <phase duration="3" state="yryr" />
        <phase duration="30" state="rGrG" />
        <phase duration="3" state="ryry" />
    </tlLogic>
    
    <tlLogic id="10241773437" type="static" programID="1" offset="0">
        <phase duration="30" state="GrGr" />
        <phase duration="3" state="yryr" />
        <phase duration="30" state="rGrG" />
        <phase duration="3" state="ryry" />
    </tlLogic>
    
    <tlLogic id="10242983155" type="static" programID="1" offset="0">
        <phase duration="30" state="GrGr" />
        <phase duration="3" state="yryr" />
        <phase duration="30" state="rGrG" />
        <phase duration="3" state="ryry" />
    </tlLogic>
    
    <tlLogic id="10291350262" type="static" programID="1" offset="0">
        <phase duration="30" state="GrGr" />
        <phase duration="3" state="yryr" />
        <phase duration="30" state="rGrG" />
        <phase duration="3" state="ryry" />
    </tlLogic>
    
    <tlLogic id="10291350263" type="static" programID="1" offset="0">
        <phase duration="30" state="GrGr" />
        <phase duration="3" state="yryr" />
        <phase duration="30" state="rGrG" />
        <phase duration="3" state="ryry" />
    </tlLogic>
    
    <tlLogic id="10291350264" type="static" programID="1" offset="0">
        <phase duration="30" state="GrGr" />
        <phase duration="3" state="yryr" />
        <phase duration="30" state="rGrG" />
        <phase duration="3" state="ryry" />
    </tlLogic>
    
    <tlLogic id="10291350265" type="static" programID="1" offset="0">
        <phase duration="30" state="GrGr" />
        <phase duration="3" state="yryr" />
        <phase duration="30" state="rGrG" />
        <phase duration="3" state="ryry" />
    </tlLogic>
    
    <tlLogic id="10304487470" type="static" programID="1" offset="0">
        <phase duration="30" state="GrGr" />
        <phase duration="3" state="yryr" />
        <phase duration="30" state="rGrG" />
        <phase duration="3" state="ryry" />
    </tlLogic>
    
    <tlLogic id="10561900941" type="static" programID="1" offset="0">
        <phase duration="30" state="GrGr" />
        <phase duration="3" state="yryr" />
        <phase duration="30" state="rGrG" />
        <phase duration="3" state="ryry" />
    </tlLogic>
    
    <tlLogic id="10572779916" type="static" programID="1" offset="0">
        <phase duration="30" state="GrGr" />
        <phase duration="3" state="yryr" />
        <phase duration="30" state="rGrG" />
        <phase duration="3" state="ryry" />
    </tlLogic>
    
    <tlLogic id="10572779917" type="static" programID="1" offset="0">
        <phase duration="30" state="GrGr" />
        <phase duration="3" state="yryr" />
        <phase duration="30" state="rGrG" />
        <phase duration="3" state="ryry" />
    </tlLogic>
    
    <tlLogic id="10572779918" type="static" programID="1" offset="0">
        <phase duration="30" state="GrGr" />
        <phase duration="3" state="yryr" />
        <phase duration="30" state="rGrG" />
        <phase duration="3" state="ryry" />
    </tlLogic>
    
    <tlLogic id="10572779919" type="static" programID="1" offset="0">
        <phase duration="30" state="GrGr" />
        <phase duration="3" state="yryr" />
        <phase duration="30" state="rGrG" />
        <phase duration="3" state="ryry" />
    </tlLogic>
    
    <tlLogic id="10572779920" type="static" programID="1" offset="0">
        <phase duration="30" state="GrGr" />
        <phase duration="3" state="yryr" />
        <phase duration="30" state="rGrG" />
        <phase duration="3" state="ryry" />
    </tlLogic>
    
    <tlLogic id="10572779922" type="static" programID="1" offset="0">
        <phase duration="30" state="GrGr" />
        <phase duration="3" state="yryr" />
        <phase duration="30" state="rGrG" />
        <phase duration="3" state="ryry" />
    </tlLogic>
    
    <tlLogic id="10682995433" type="static" programID="1" offset="0">
        <phase duration="30" state="GrGr" />
        <phase duration="3" state="yryr" />
        <phase duration="30" state="rGrG" />
        <phase duration="3" state="ryry" />
    </tlLogic>
    
    <tlLogic id="10720565885" type="static" programID="1" offset="0">
        <phase duration="30" state="GrGr" />
        <phase duration="3" state="yryr" />
        <phase duration="30" state="rGrG" />
        <phase duration="3" state="ryry" />
    </tlLogic>
    
    <tlLogic id="10720565886" type="static" programID="1" offset="0">
        <phase duration="30" state="GrGr" />
        <phase duration="3" state="yryr" />
        <phase duration="30" state="rGrG" />
        <phase duration="3" state="ryry" />
    </tlLogic>
    
    <tlLogic id="10724785111" type="static" programID="1" offset="0">
        <phase duration="30" state="GrGr" />
        <phase duration="3" state="yryr" />
        <phase duration="30" state="rGrG" />
        <phase duration="3" state="ryry" />
    </tlLogic>
    
    <tlLogic id="10996560581" type="static" programID="1" offset="0">
        <phase duration="30" state="GrGr" />
        <phase duration="3" state="yryr" />
        <phase duration="30" state="rGrG" />
        <phase duration="3" state="ryry" />
    </tlLogic>
    
    <tlLogic id="10996560582" type="static" programID="1" offset="0">
        <phase duration="30" state="GrGr" />
        <phase duration="3" state="yryr" />
        <phase duration="30" state="rGrG" />
        <phase duration="3" state="ryry" />
    </tlLogic>
    
    <tlLogic id="11007308897" type="static" programID="1" offset="0">
        <phase duration="30" state="GrGr" />
        <phase duration="3" state="yryr" />
        <phase duration="30" state="rGrG" />
        <phase duration="3" state="ryry" />
    </tlLogic>
    
    <tlLogic id="11007395707" type="static" programID="1" offset="0">
        <phase duration="30" state="GrGr" />
        <phase duration="3" state="yryr" />
        <phase duration="30" state="rGrG" />
        <phase duration="3" state="ryry" />
    </tlLogic>
    
    <tlLogic id="11007653303" type="static" programID="1" offset="0">
        <phase duration="30" state="GrGr" />
        <phase duration="3" state="yryr" />
        <phase duration="30" state="rGrG" />
        <phase duration="3" state="ryry" />
    </tlLogic>
    
    <tlLogic id="11007653906" type="static" programID="1" offset="0">
        <phase duration="30" state="GrGr" />
        <phase duration="3" state="yryr" />
        <phase duration="30" state="rGrG" />
        <phase duration="3" state="ryry" />
    </tlLogic>
    
    <tlLogic id="11007667691" type="static" programID="1" offset="0">
        <phase duration="30" state="GrGr" />
        <phase duration="3" state="yryr" />
        <phase duration="30" state="rGrG" />
        <phase duration="3" state="ryry" />
    </tlLogic>
    
    <tlLogic id="11008112502" type="static" programID="1" offset="0">
        <phase duration="30" state="GrGr" />
        <phase duration="3" state="yryr" />
        <phase duration="30" state="rGrG" />
        <phase duration="3" state="ryry" />
    </tlLogic>
    
    <tlLogic id="11009571470" type="static" programID="1" offset="0">
        <phase duration="30" state="GrGr" />
        <phase duration="3" state="yryr" />
        <phase duration="30" state="rGrG" />
        <phase duration="3" state="ryry" />
    </tlLogic>
    
    <tlLogic id="11009571476" type="static" programID="1" offset="0">
        <phase duration="30" state="GrGr" />
        <phase duration="3" state="yryr" />
        <phase duration="30" state="rGrG" />
        <phase duration="3" state="ryry" />
    </tlLogic>
    
    <tlLogic id="11024121797" type="static" programID="1" offset="0">
        <phase duration="30" state="GrGr" />
        <phase duration="3" state="yryr" />
        <phase duration="30" state="rGrG" />
        <phase duration="3" state="ryry" />
    </tlLogic>
    
    <tlLogic id="11024121799" type="static" programID="1" offset="0">
        <phase duration="30" state="GrGr" />
        <phase duration="3" state="yryr" />
        <phase duration="30" state="rGrG" />
        <phase duration="3" state="ryry" />
    </tlLogic>
    
    <tlLogic id="11024154102" type="static" programID="1" offset="0">
        <phase duration="30" state="GrGr" />
        <phase duration="3" state="yryr" />
        <phase duration="30" state="rGrG" />
        <phase duration="3" state="ryry" />
    </tlLogic>
    
    <tlLogic id="11024154103" type="static" programID="1" offset="0">
        <phase duration="30" state="GrGr" />
        <phase duration="3" state="yryr" />
        <phase duration="30" state="rGrG" />
        <phase duration="3" state="ryry" />
    </tlLogic>
    
    <tlLogic id="11024162292" type="static" programID="1" offset="0">
        <phase duration="30" state="GrGr" />
        <phase duration="3" state="yryr" />
        <phase duration="30" state="rGrG" />
        <phase duration="3" state="ryry" />
    </tlLogic>
    
    <tlLogic id="11024162293" type="static" programID="1" offset="0">
        <phase duration="30" state="GrGr" />
        <phase duration="3" state="yryr" />
        <phase duration="30" state="rGrG" />
        <phase duration="3" state="ryry" />
    </tlLogic>
    
    <tlLogic id="11024165658" type="static" programID="1" offset="0">
        <phase duration="30" state="GrGr" />
        <phase duration="3" state="yryr" />
        <phase duration="30" state="rGrG" />
        <phase duration="3" state="ryry" />
    </tlLogic>
    
    <tlLogic id="11024166607" type="static" programID="1" offset="0">
        <phase duration="30" state="GrGr" />
        <phase duration="3" state="yryr" />
        <phase duration="30" state="rGrG" />
        <phase duration="3" state="ryry" />
    </tlLogic>
    
    <tlLogic id="11024166609" type="static" programID="1" offset="0">
        <phase duration="30" state="GrGr" />
        <phase duration="3" state="yryr" />
        <phase duration="30" state="rGrG" />
        <phase duration="3" state="ryry" />
    </tlLogic>
    
    <tlLogic id="11024171821" type="static" programID="1" offset="0">
        <phase duration="30" state="GrGr" />
        <phase duration="3" state="yryr" />
        <phase duration="30" state="rGrG" />
        <phase duration="3" state="ryry" />
    </tlLogic>
    
    <tlLogic id="11024171823" type="static" programID="1" offset="0">
        <phase duration="30" state="GrGr" />
        <phase duration="3" state="yryr" />
        <phase duration="30" state="rGrG" />
        <phase duration="3" state="ryry" />
    </tlLogic>
    
    <tlLogic id="11025451071" type="static" programID="1" offset="0">
        <phase duration="30" state="GrGr" />
        <phase duration="3" state="yryr" />
        <phase duration="30" state="rGrG" />
        <phase duration="3" state="ryry" />
    </tlLogic>
    
    <tlLogic id="11025451072" type="static" programID="1" offset="0">
        <phase duration="30" state="GrGr" />
        <phase duration="3" state="yryr" />
        <phase duration="30" state="rGrG" />
        <phase duration="3" state="ryry" />
    </tlLogic>
    
    <tlLogic id="11029923232" type="static" programID="1" offset="0">
        <phase duration="30" state="GrGr" />
        <phase duration="3" state="yryr" />
        <phase duration="30" state="rGrG" />
        <phase duration="3" state="ryry" />
    </tlLogic>
    
    <tlLogic id="11029923233" type="static" programID="1" offset="0">
        <phase duration="30" state="GrGr" />
        <phase duration="3" state="yryr" />
        <phase duration="30" state="rGrG" />
        <phase duration="3" state="ryry" />
    </tlLogic>
    
    <tlLogic id="11050325723" type="static" programID="1" offset="0">
        <phase duration="30" state="GrGr" />
        <phase duration="3" state="yryr" />
        <phase duration="30" state="rGrG" />
        <phase duration="3" state="ryry" />
    </tlLogic>
    
    <tlLogic id="11050325724" type="static" programID="1" offset="0">
        <phase duration="30" state="GrGr" />
        <phase duration="3" state="yryr" />
        <phase duration="30" state="rGrG" />
        <phase duration="3" state="ryry" />
    </tlLogic>
    
    <tlLogic id="11055872497" type="static" programID="1" offset="0">
        <phase duration="30" state="GrGr" />
        <phase duration="3" state="yryr" />
        <phase duration="30" state="rGrG" />
        <phase duration="3" state="ryry" />
    </tlLogic>
    
    <tlLogic id="11055872498" type="static" programID="1" offset="0">
        <phase duration="30" state="GrGr" />
        <phase duration="3" state="yryr" />
        <phase duration="30" state="rGrG" />
        <phase duration="3" state="ryry" />
    </tlLogic>
    
    <tlLogic id="11055872499" type="static" programID="1" offset="0">
        <phase duration="30" state="GrGr" />
        <phase duration="3" state="yryr" />
        <phase duration="30" state="rGrG" />
        <phase duration="3" state="ryry" />
    </tlLogic>
    
    <tlLogic id="11055872500" type="static" programID="1" offset="0">
        <phase duration="30" state="GrGr" />
        <phase duration="3" state="yryr" />
        <phase duration="30" state="rGrG" />
        <phase duration="3" state="ryry" />
    </tlLogic>
    
    <tlLogic id="11055874811" type="static" programID="1" offset="0">
        <phase duration="30" state="GrGr" />
        <phase duration="3" state="yryr" />
        <phase duration="30" state="rGrG" />
        <phase duration="3" state="ryry" />
    </tlLogic>
    
    <tlLogic id="11055874813" type="static" programID="1" offset="0">
        <phase duration="30" state="GrGr" />
        <phase duration="3" state="yryr" />
        <phase duration="30" state="rGrG" />
        <phase duration="3" state="ryry" />
    </tlLogic>
    
    <tlLogic id="11055874814" type="static" programID="1" offset="0">
        <phase duration="30" state="GrGr" />
        <phase duration="3" state="yryr" />
        <phase duration="30" state="rGrG" />
        <phase duration="3" state="ryry" />
    </tlLogic>
    
    <tlLogic id="11056042855" type="static" programID="1" offset="0">
        <phase duration="30" state="GrGr" />
        <phase duration="3" state="yryr" />
        <phase duration="30" state="rGrG" />
        <phase duration="3" state="ryry" />
    </tlLogic>
    
    <tlLogic id="11066953380" type="static" programID="1" offset="0">
        <phase duration="30" state="GrGr" />
        <phase duration="3" state="yryr" />
        <phase duration="30" state="rGrG" />
        <phase duration="3" state="ryry" />
    </tlLogic>
    
    <tlLogic id="11066953383" type="static" programID="1" offset="0">
        <phase duration="30" state="GrGr" />
        <phase duration="3" state="yryr" />
        <phase duration="30" state="rGrG" />
        <phase duration="3" state="ryry" />
    </tlLogic>
    
    <tlLogic id="11152705379" type="static" programID="1" offset="0">
        <phase duration="30" state="GrGr" />
        <phase duration="3" state="yryr" />
        <phase duration="30" state="rGrG" />
        <phase duration="3" state="ryry" />
    </tlLogic>
    
    <tlLogic id="11152705380" type="static" programID="1" offset="0">
        <phase duration="30" state="GrGr" />
        <phase duration="3" state="yryr" />
        <phase duration="30" state="rGrG" />
        <phase duration="3" state="ryry" />
    </tlLogic>
    
    <tlLogic id="11174260606" type="static" programID="1" offset="0">
        <phase duration="30" state="GrGr" />
        <phase duration="3" state="yryr" />
        <phase duration="30" state="rGrG" />
        <phase duration="3" state="ryry" />
    </tlLogic>
    
    <tlLogic id="11174307053" type="static" programID="1" offset="0">
        <phase duration="30" state="GrGr" />
        <phase duration="3" state="yryr" />
        <phase duration="30" state="rGrG" />
        <phase duration="3" state="ryry" />
    </tlLogic>
    
    <tlLogic id="11176444175" type="static" programID="1" offset="0">
        <phase duration="30" state="GrGr" />
        <phase duration="3" state="yryr" />
        <phase duration="30" state="rGrG" />
        <phase duration="3" state="ryry" />
    </tlLogic>
    
    <tlLogic id="11207236837" type="static" programID="1" offset="0">
        <phase duration="30" state="GrGr" />
        <phase duration="3" state="yryr" />
        <phase duration="30" state="rGrG" />
        <phase duration="3" state="ryry" />
    </tlLogic>
    
    <tlLogic id="11207236839" type="static" programID="1" offset="0">
        <phase duration="30" state="GrGr" />
        <phase duration="3" state="yryr" />
        <phase duration="30" state="rGrG" />
        <phase duration="3" state="ryry" />
    </tlLogic>
    
    <tlLogic id="11207236843" type="static" programID="1" offset="0">
        <phase duration="30" state="GrGr" />
        <phase duration="3" state="yryr" />
        <phase duration="30" state="rGrG" />
        <phase duration="3" state="ryry" />
    </tlLogic>
    
    <tlLogic id="11207278051" type="static" programID="1" offset="0">
        <phase duration="30" state="GrGr" />
        <phase duration="3" state="yryr" />
        <phase duration="30" state="rGrG" />
        <phase duration="3" state="ryry" />
    </tlLogic>
    
    <tlLogic id="11237471594" type="static" programID="1" offset="0">
        <phase duration="30" state="GrGr" />
        <phase duration="3" state="yryr" />
        <phase duration="30" state="rGrG" />
        <phase duration="3" state="ryry" />
    </tlLogic>
    
    <tlLogic id="11237471595" type="static" programID="1" offset="0">
        <phase duration="30" state="GrGr" />
        <phase duration="3" state="yryr" />
        <phase duration="30" state="rGrG" />
        <phase duration="3" state="ryry" />
    </tlLogic>
    
    <tlLogic id="11259025132" type="static" programID="1" offset="0">
        <phase duration="30" state="GrGr" />
        <phase duration="3" state="yryr" />
        <phase duration="30" state="rGrG" />
        <phase duration="3" state="ryry" />
    </tlLogic>
    
    <tlLogic id="11259025135" type="static" programID="1" offset="0">
        <phase duration="30" state="GrGr" />
        <phase duration="3" state="yryr" />
        <phase duration="30" state="rGrG" />
        <phase duration="3" state="ryry" />
    </tlLogic>
    
    <tlLogic id="11259257297" type="static" programID="1" offset="0">
        <phase duration="30" state="GrGr" />
        <phase duration="3" state="yryr" />
        <phase duration="30" state="rGrG" />
        <phase duration="3" state="ryry" />
    </tlLogic>
    
    <tlLogic id="11259257298" type="static" programID="1" offset="0">
        <phase duration="30" state="GrGr" />
        <phase duration="3" state="yryr" />
        <phase duration="30" state="rGrG" />
        <phase duration="3" state="ryry" />
    </tlLogic>
    
    <tlLogic id="11259257299" type="static" programID="1" offset="0">
        <phase duration="30" state="GrGr" />
        <phase duration="3" state="yryr" />
        <phase duration="30" state="rGrG" />
        <phase duration="3" state="ryry" />
    </tlLogic>
    
    <tlLogic id="11259257300" type="static" programID="1" offset="0">
        <phase duration="30" state="GrGr" />
        <phase duration="3" state="yryr" />
        <phase duration="30" state="rGrG" />
        <phase duration="3" state="ryry" />
    </tlLogic>
    
    <tlLogic id="11259257303" type="static" programID="1" offset="0">
        <phase duration="30" state="GrGr" />
        <phase duration="3" state="yryr" />
        <phase duration="30" state="rGrG" />
        <phase duration="3" state="ryry" />
    </tlLogic>
    
    <tlLogic id="11259440121" type="static" programID="1" offset="0">
        <phase duration="30" state="GrGr" />
        <phase duration="3" state="yryr" />
        <phase duration="30" state="rGrG" />
        <phase duration="3" state="ryry" />
    </tlLogic>
    
    <tlLogic id="11259440123" type="static" programID="1" offset="0">
        <phase duration="30" state="GrGr" />
        <phase duration="3" state="yryr" />
        <phase duration="30" state="rGrG" />
        <phase duration="3" state="ryry" />
    </tlLogic>
    
    <tlLogic id="11333573203" type="static" programID="1" offset="0">
        <phase duration="30" state="GrGr" />
        <phase duration="3" state="yryr" />
        <phase duration="30" state="rGrG" />
        <phase duration="3" state="ryry" />
    </tlLogic>
    
    <tlLogic id="11350305602" type="static" programID="1" offset="0">
        <phase duration="30" state="GrGr" />
        <phase duration="3" state="yryr" />
        <phase duration="30" state="rGrG" />
        <phase duration="3" state="ryry" />
    </tlLogic>
    
    <tlLogic id="11383168106" type="static" programID="1" offset="0">
        <phase duration="30" state="GrGr" />
        <phase duration="3" state="yryr" />
        <phase duration="30" state="rGrG" />
        <phase duration="3" state="ryry" />
    </tlLogic>
    
    <tlLogic id="11481606376" type="static" programID="1" offset="0">
        <phase duration="30" state="GrGr" />
        <phase duration="3" state="yryr" />
        <phase duration="30" state="rGrG" />
        <phase duration="3" state="ryry" />
    </tlLogic>
    
    <tlLogic id="11481606383" type="static" programID="1" offset="0">
        <phase duration="30" state="GrGr" />
        <phase duration="3" state="yryr" />
        <phase duration="30" state="rGrG" />
        <phase duration="3" state="ryry" />
    </tlLogic>
    
    <tlLogic id="11481606389" type="static" programID="1" offset="0">
        <phase duration="30" state="GrGr" />
        <phase duration="3" state="yryr" />
        <phase duration="30" state="rGrG" />
        <phase duration="3" state="ryry" />
    </tlLogic>
    
    <tlLogic id="11481837805" type="static" programID="1" offset="0">
        <phase duration="30" state="GrGr" />
        <phase duration="3" state="yryr" />
        <phase duration="30" state="rGrG" />
        <phase duration="3" state="ryry" />
    </tlLogic>
    
    <tlLogic id="11481837806" type="static" programID="1" offset="0">
        <phase duration="30" state="GrGr" />
        <phase duration="3" state="yryr" />
        <phase duration="30" state="rGrG" />
        <phase duration="3" state="ryry" />
    </tlLogic>
    
    <tlLogic id="11481837807" type="static" programID="1" offset="0">
        <phase duration="30" state="GrGr" />
        <phase duration="3" state="yryr" />
        <phase duration="30" state="rGrG" />
        <phase duration="3" state="ryry" />
    </tlLogic>
    
    <tlLogic id="11481837812" type="static" programID="1" offset="0">
        <phase duration="30" state="GrGr" />
        <phase duration="3" state="yryr" />
        <phase duration="30" state="rGrG" />
        <phase duration="3" state="ryry" />
    </tlLogic>
    
    <tlLogic id="11481837823" type="static" programID="1" offset="0">
        <phase duration="30" state="GrGr" />
        <phase duration="3" state="yryr" />
        <phase duration="30" state="rGrG" />
        <phase duration="3" state="ryry" />
    </tlLogic>
    
    <tlLogic id="11481837834" type="static" programID="1" offset="0">
        <phase duration="30" state="GrGr" />
        <phase duration="3" state="yryr" />
        <phase duration="30" state="rGrG" />
        <phase duration="3" state="ryry" />
    </tlLogic>
    
    <tlLogic id="11486443196" type="static" programID="1" offset="0">
        <phase duration="30" state="GrGr" />
        <phase duration="3" state="yryr" />
        <phase duration="30" state="rGrG" />
        <phase duration="3" state="ryry" />
    </tlLogic>
    
    <tlLogic id="11486544866" type="static" programID="1" offset="0">
        <phase duration="30" state="GrGr" />
        <phase duration="3" state="yryr" />
        <phase duration="30" state="rGrG" />
        <phase duration="3" state="ryry" />
    </tlLogic>
    
    <tlLogic id="11490174005" type="static" programID="1" offset="0">
        <phase duration="30" state="GrGr" />
        <phase duration="3" state="yryr" />
        <phase duration="30" state="rGrG" />
        <phase duration="3" state="ryry" />
    </tlLogic>
    
    <tlLogic id="11490215437" type="static" programID="1" offset="0">
        <phase duration="30" state="GrGr" />
        <phase duration="3" state="yryr" />
        <phase duration="30" state="rGrG" />
        <phase duration="3" state="ryry" />
    </tlLogic>
    
    <tlLogic id="11491469665" type="static" programID="1" offset="0">
        <phase duration="30" state="GrGr" />
        <phase duration="3" state="yryr" />
        <phase duration="30" state="rGrG" />
        <phase duration="3" state="ryry" />
    </tlLogic>
    
    <tlLogic id="11491550416" type="static" programID="1" offset="0">
        <phase duration="30" state="GrGr" />
        <phase duration="3" state="yryr" />
        <phase duration="30" state="rGrG" />
        <phase duration="3" state="ryry" />
    </tlLogic>
    
    <tlLogic id="11491550417" type="static" programID="1" offset="0">
        <phase duration="30" state="GrGr" />
        <phase duration="3" state="yryr" />
        <phase duration="30" state="rGrG" />
        <phase duration="3" state="ryry" />
    </tlLogic>
    
    <tlLogic id="11491635460" type="static" programID="1" offset="0">
        <phase duration="30" state="GrGr" />
        <phase duration="3" state="yryr" />
        <phase duration="30" state="rGrG" />
        <phase duration="3" state="ryry" />
    </tlLogic>
    
    <tlLogic id="11491635461" type="static" programID="1" offset="0">
        <phase duration="30" state="GrGr" />
        <phase duration="3" state="yryr" />
        <phase duration="30" state="rGrG" />