<?xml version="1.0" encoding="UTF-8"?>

<!-- generated on 2025-03-21 11:48:35.618049 by $Id: ptlines2flows.py v1_3_1+0313-ccb31df3eb jakob.erdmann@dlr.de 2019-09-02 13:26:32 +0200 $ v1_22_0+0002-63e50f52594
<configuration>
    <net-file value="C:\Users\sai\OneDrive\Documents\TLO\2025-03-21-11-48-15\osm.net.xml.gz"/>
    <ptlines-file value="C:\Users\sai\OneDrive\Documents\TLO\2025-03-21-11-48-15\osm_ptlines.xml"/>
    <ptstops-file value="C:\Users\sai\OneDrive\Documents\TLO\2025-03-21-11-48-15\osm_stops.add.xml"/>
    <output-file value="C:\Users\sai\OneDrive\Documents\TLO\2025-03-21-11-48-15\osm_pt.rou.xml"/>
    <stopinfos-file value="C:\Users\sai\OneDrive\Documents\TLO\2025-03-21-11-48-15\stopinfos.xml"/>
    <routes-file value="C:\Users\sai\OneDrive\Documents\TLO\2025-03-21-11-48-15\vehroutes.xml"/>
    <trips-file value="C:\Users\sai\OneDrive\Documents\TLO\2025-03-21-11-48-15\trips.trips.xml"/>
    <min-stops value="0"/>
    <extend-to-fringe value="True"/>
    <random-begin value="True"/>
    <seed value="42"/>
    <ignore-errors value="True"/>
    <vtype-prefix value="pt_"/>
    <verbose value="True"/>
</configuration>
-->

<routes xmlns:xsi="http://www.w3.org/2001/XMLSchema-instance" xsi:noNamespaceSchemaLocation="http://sumo.dlr.de/xsd/routes_file.xsd">
    <vType id="pt_bus" vClass="bus" speedFactor="0.95"/>
    <vType id="pt_tram" vClass="tram" speedFactor="1.0"/>
    <vType id="pt_train" vClass="rail"/>
    <vType id="pt_subway" vClass="subway"/>
    <vType id="pt_light_rail" vClass="rail_urban"/>
    <vType id="pt_monorail" vClass="rail_urban"/>
    <vType id="pt_trolleybus" vClass="bus" speedFactor="0.95"/>
    <vType id="pt_minibus" vClass="bus" speedFactor="0.95"/>
    <vType id="pt_share_taxi" vClass="taxi" speedFactor="0.95"/>
    <vType id="pt_aerialway" vClass="cable_car" length="2.5" width="2" personCapacity="4"/>
    <vType id="pt_ferry" vClass="ship"/>
    <trip id="0_bus_Gurgaon_→_Karol_Bagh:0" type="pt_bus" depart="15.0" departLane="best" from="764399428" to="151980086">
        <stop busStop="7141186255" duration="30"/>  <!-- Gurgaon -->
        <stop busStop="7141186254" duration="30"/>  <!-- Gurgaon Bus Stand -->
        <stop busStop="7141186239" duration="30"/>  <!-- Patel Nagar -->
        <stop busStop="7141186238" duration="30"/>  <!-- Government Girls College, Mehrauli-Gurgaon Road -->
    </trip>
    <trip id="1_bus_BPG:0" type="pt_bus" depart="133.0" departLane="best" from="764399428" to="151980086">
        <stop busStop="7141186255" duration="30"/>  <!-- Gurgaon -->
        <stop busStop="7141186254" duration="30"/>  <!-- Gurgaon Bus Stand -->
        <stop busStop="7141186239" duration="30"/>  <!-- Patel Nagar -->
        <stop busStop="7141186238" duration="30"/>  <!-- Government Girls College, Mehrauli-Gurgaon Road -->
    </trip>
    <trip id="2_bus_Gurgaon_→_Anand_Vihar_ISBT:0" type="pt_bus" depart="165.0" departLane="best" from="764399428" to="151980086">
        <stop busStop="7141186255" duration="30"/>  <!-- Gurgaon -->
        <stop busStop="7141186254" duration="30"/>  <!-- Gurgaon Bus Stand -->
        <stop busStop="7141186239" duration="30"/>  <!-- Patel Nagar -->
        <stop busStop="7141186238" duration="30"/>  <!-- Government Girls College, Mehrauli-Gurgaon Road -->
    </trip>
    <trip id="3_bus_BPG:1" type="pt_bus" depart="383.0" departLane="best" from="648541400#0" to="764399429#1">
        <stop busStop="7141186257" duration="30"/>  <!-- Government Girls College, Mehrauli-Gurgaon Road -->
        <stop busStop="7141186258" duration="30"/>  <!-- Patel Nagar -->
        <stop busStop="7141186259" duration="30"/>  <!-- None -->
        <stop busStop="7141186260" duration="30"/>  <!-- Gurgaon Bus Stand -->
        <stop busStop="2225581671" duration="30"/>  <!-- Gurgaon -->
    </trip>
</routes>
