<routes>
    <vType id="car" accel="0.8" decel="4.5" length="5" maxSpeed="30"/>

    <route id="route1" edges="E1 E2"/>

    <!-- Increased vehicle spawn rate -->
    <flow id="flow1" type="car" route="route1" begin="0" end="3600" vehsPerHour="1000"/>
</routes>
